<additional xmlns:xsi="http://www.w3.org/2001/XMLSchema-instance" xsi:noNamespaceSchemaLocation="http://sumo.dlr.de/xsd/additional_file.xsd">
    <laneAreaDetector file="e2output.xml" freq="60" friendlyPos="x" id="A0A1_0" lane="A0A1_0" length="250" pos="321.79999999999995"/>
    <laneAreaDetector file="e2output.xml" freq="60" friendlyPos="x" id="A0A1_1" lane="A0A1_1" length="250" pos="321.79999999999995"/>
    <laneAreaDetector file="e2output.xml" freq="60" friendlyPos="x" id="A0A1_2" lane="A0A1_2" length="250" pos="321.79999999999995"/>
    <laneAreaDetector file="e2output.xml" freq="60" friendlyPos="x" id="A2A1_0" lane="A2A1_0" length="250" pos="321.79999999999995"/>
    <laneAreaDetector file="e2output.xml" freq="60" friendlyPos="x" id="A2A1_1" lane="A2A1_1" length="250" pos="321.79999999999995"/>
    <laneAreaDetector file="e2output.xml" freq="60" friendlyPos="x" id="A2A1_2" lane="A2A1_2" length="250" pos="321.79999999999995"/>
    <laneAreaDetector file="e2output.xml" freq="60" friendlyPos="x" id="B1A1_0" lane="B1A1_0" length="250" pos="321.79999999999995"/>
    <laneAreaDetector file="e2output.xml" freq="60" friendlyPos="x" id="B1A1_1" lane="B1A1_1" length="250" pos="321.79999999999995"/>
    <laneAreaDetector file="e2output.xml" freq="60" friendlyPos="x" id="B1A1_2" lane="B1A1_2" length="250" pos="321.79999999999995"/>
    <laneAreaDetector file="e2output.xml" freq="60" friendlyPos="x" id="left1A1_0" lane="left1A1_0" length="250" pos="135.39999999999998"/>
    <laneAreaDetector file="e2output.xml" freq="60" friendlyPos="x" id="left1A1_1" lane="left1A1_1" length="250" pos="135.39999999999998"/>
    <laneAreaDetector file="e2output.xml" freq="60" friendlyPos="x" id="left1A1_2" lane="left1A1_2" length="250" pos="135.39999999999998"/>
    <laneAreaDetector file="e2output.xml" freq="60" friendlyPos="x" id="A0B0_0" lane="A0B0_0" length="250" pos="321.79999999999995"/>
    <laneAreaDetector file="e2output.xml" freq="60" friendlyPos="x" id="A0B0_1" lane="A0B0_1" length="250" pos="321.79999999999995"/>
    <laneAreaDetector file="e2output.xml" freq="60" friendlyPos="x" id="A0B0_2" lane="A0B0_2" length="250" pos="321.79999999999995"/>
    <laneAreaDetector file="e2output.xml" freq="60" friendlyPos="x" id="B1B0_0" lane="B1B0_0" length="250" pos="321.79999999999995"/>
    <laneAreaDetector file="e2output.xml" freq="60" friendlyPos="x" id="B1B0_1" lane="B1B0_1" length="250" pos="321.79999999999995"/>
    <laneAreaDetector file="e2output.xml" freq="60" friendlyPos="x" id="B1B0_2" lane="B1B0_2" length="250" pos="321.79999999999995"/>
    <laneAreaDetector file="e2output.xml" freq="60" friendlyPos="x" id="C0B0_0" lane="C0B0_0" length="250" pos="321.79999999999995"/>
    <laneAreaDetector file="e2output.xml" freq="60" friendlyPos="x" id="C0B0_1" lane="C0B0_1" length="250" pos="321.79999999999995"/>
    <laneAreaDetector file="e2output.xml" freq="60" friendlyPos="x" id="C0B0_2" lane="C0B0_2" length="250" pos="321.79999999999995"/>
    <laneAreaDetector file="e2output.xml" freq="60" friendlyPos="x" id="bottom1B0_0" lane="bottom1B0_0" length="250" pos="135.39999999999998"/>
    <laneAreaDetector file="e2output.xml" freq="60" friendlyPos="x" id="bottom1B0_1" lane="bottom1B0_1" length="250" pos="135.39999999999998"/>
    <laneAreaDetector file="e2output.xml" freq="60" friendlyPos="x" id="bottom1B0_2" lane="bottom1B0_2" length="250" pos="135.39999999999998"/>
    <laneAreaDetector file="e2output.xml" freq="60" friendlyPos="x" id="A0bottom0_2" lane="A0bottom0_2" length="250" pos="135.39999999999998"/>
    <laneAreaDetector file="e2output.xml" freq="60" friendlyPos="x" id="A0left0_2" lane="A0left0_2" length="250" pos="135.39999999999998"/>
    <laneAreaDetector file="e2output.xml" freq="60" friendlyPos="x" id="A1A0_0" lane="A1A0_0" length="250" pos="321.79999999999995"/>
    <laneAreaDetector file="e2output.xml" freq="60" friendlyPos="x" id="A1A0_1" lane="A1A0_1" length="250" pos="321.79999999999995"/>
    <laneAreaDetector file="e2output.xml" freq="60" friendlyPos="x" id="A1A0_2" lane="A1A0_2" length="250" pos="321.79999999999995"/>
    <laneAreaDetector file="e2output.xml" freq="60" friendlyPos="x" id="B0A0_0" lane="B0A0_0" length="250" pos="321.79999999999995"/>
    <laneAreaDetector file="e2output.xml" freq="60" friendlyPos="x" id="B0A0_1" lane="B0A0_1" length="250" pos="321.79999999999995"/>
    <laneAreaDetector file="e2output.xml" freq="60" friendlyPos="x" id="B0A0_2" lane="B0A0_2" length="250" pos="321.79999999999995"/>
    <laneAreaDetector file="e2output.xml" freq="60" friendlyPos="x" id="bottom0A0_0" lane="bottom0A0_0" length="250" pos="135.39999999999998"/>
    <laneAreaDetector file="e2output.xml" freq="60" friendlyPos="x" id="bottom0A0_1" lane="bottom0A0_1" length="250" pos="135.39999999999998"/>
    <laneAreaDetector file="e2output.xml" freq="60" friendlyPos="x" id="bottom0A0_2" lane="bottom0A0_2" length="250" pos="135.39999999999998"/>
    <laneAreaDetector file="e2output.xml" freq="60" friendlyPos="x" id="left0A0_0" lane="left0A0_0" length="250" pos="135.39999999999998"/>
    <laneAreaDetector file="e2output.xml" freq="60" friendlyPos="x" id="left0A0_1" lane="left0A0_1" length="250" pos="135.39999999999998"/>
    <laneAreaDetector file="e2output.xml" freq="60" friendlyPos="x" id="left0A0_2" lane="left0A0_2" length="250" pos="135.39999999999998"/>
    <laneAreaDetector file="e2output.xml" freq="60" friendlyPos="x" id="A1A2_0" lane="A1A2_0" length="250" pos="321.79999999999995"/>
    <laneAreaDetector file="e2output.xml" freq="60" friendlyPos="x" id="A1A2_1" lane="A1A2_1" length="250" pos="321.79999999999995"/>
    <laneAreaDetector file="e2output.xml" freq="60" friendlyPos="x" id="A1A2_2" lane="A1A2_2" length="250" pos="321.79999999999995"/>
    <laneAreaDetector file="e2output.xml" freq="60" friendlyPos="x" id="A3A2_0" lane="A3A2_0" length="250" pos="321.79999999999995"/>
    <laneAreaDetector file="e2output.xml" freq="60" friendlyPos="x" id="A3A2_1" lane="A3A2_1" length="250" pos="321.79999999999995"/>
    <laneAreaDetector file="e2output.xml" freq="60" friendlyPos="x" id="A3A2_2" lane="A3A2_2" length="250" pos="321.79999999999995"/>
    <laneAreaDetector file="e2output.xml" freq="60" friendlyPos="x" id="B2A2_0" lane="B2A2_0" length="250" pos="321.79999999999995"/>
    <laneAreaDetector file="e2output.xml" freq="60" friendlyPos="x" id="B2A2_1" lane="B2A2_1" length="250" pos="321.79999999999995"/>
    <laneAreaDetector file="e2output.xml" freq="60" friendlyPos="x" id="B2A2_2" lane="B2A2_2" length="250" pos="321.79999999999995"/>
    <laneAreaDetector file="e2output.xml" freq="60" friendlyPos="x" id="left2A2_0" lane="left2A2_0" length="250" pos="135.39999999999998"/>
    <laneAreaDetector file="e2output.xml" freq="60" friendlyPos="x" id="left2A2_1" lane="left2A2_1" length="250" pos="135.39999999999998"/>
    <laneAreaDetector file="e2output.xml" freq="60" friendlyPos="x" id="left2A2_2" lane="left2A2_2" length="250" pos="135.39999999999998"/>
    <laneAreaDetector file="e2output.xml" freq="60" friendlyPos="x" id="A1B1_0" lane="A1B1_0" length="250" pos="321.79999999999995"/>
    <laneAreaDetector file="e2output.xml" freq="60" friendlyPos="x" id="A1B1_1" lane="A1B1_1" length="250" pos="321.79999999999995"/>
    <laneAreaDetector file="e2output.xml" freq="60" friendlyPos="x" id="A1B1_2" lane="A1B1_2" length="250" pos="321.79999999999995"/>
    <laneAreaDetector file="e2output.xml" freq="60" friendlyPos="x" id="B0B1_0" lane="B0B1_0" length="250" pos="321.79999999999995"/>
    <laneAreaDetector file="e2output.xml" freq="60" friendlyPos="x" id="B0B1_1" lane="B0B1_1" length="250" pos="321.79999999999995"/>
    <laneAreaDetector file="e2output.xml" freq="60" friendlyPos="x" id="B0B1_2" lane="B0B1_2" length="250" pos="321.79999999999995"/>
    <laneAreaDetector file="e2output.xml" freq="60" friendlyPos="x" id="B2B1_0" lane="B2B1_0" length="250" pos="321.79999999999995"/>
    <laneAreaDetector file="e2output.xml" freq="60" friendlyPos="x" id="B2B1_1" lane="B2B1_1" length="250" pos="321.79999999999995"/>
    <laneAreaDetector file="e2output.xml" freq="60" friendlyPos="x" id="B2B1_2" lane="B2B1_2" length="250" pos="321.79999999999995"/>
    <laneAreaDetector file="e2output.xml" freq="60" friendlyPos="x" id="C1B1_0" lane="C1B1_0" length="250" pos="321.79999999999995"/>
    <laneAreaDetector file="e2output.xml" freq="60" friendlyPos="x" id="C1B1_1" lane="C1B1_1" length="250" pos="321.79999999999995"/>
    <laneAreaDetector file="e2output.xml" freq="60" friendlyPos="x" id="C1B1_2" lane="C1B1_2" length="250" pos="321.79999999999995"/>
    <laneAreaDetector file="e2output.xml" freq="60" friendlyPos="x" id="A1left1_2" lane="A1left1_2" length="250" pos="135.39999999999998"/>
    <laneAreaDetector file="e2output.xml" freq="60" friendlyPos="x" id="A2A3_0" lane="A2A3_0" length="250" pos="321.79999999999995"/>
    <laneAreaDetector file="e2output.xml" freq="60" friendlyPos="x" id="A2A3_1" lane="A2A3_1" length="250" pos="321.79999999999995"/>
    <laneAreaDetector file="e2output.xml" freq="60" friendlyPos="x" id="A2A3_2" lane="A2A3_2" length="250" pos="321.79999999999995"/>
    <laneAreaDetector file="e2output.xml" freq="60" friendlyPos="x" id="A4A3_0" lane="A4A3_0" length="250" pos="321.79999999999995"/>
    <laneAreaDetector file="e2output.xml" freq="60" friendlyPos="x" id="A4A3_1" lane="A4A3_1" length="250" pos="321.79999999999995"/>
    <laneAreaDetector file="e2output.xml" freq="60" friendlyPos="x" id="A4A3_2" lane="A4A3_2" length="250" pos="321.79999999999995"/>
    <laneAreaDetector file="e2output.xml" freq="60" friendlyPos="x" id="B3A3_0" lane="B3A3_0" length="250" pos="321.79999999999995"/>
    <laneAreaDetector file="e2output.xml" freq="60" friendlyPos="x" id="B3A3_1" lane="B3A3_1" length="250" pos="321.79999999999995"/>
    <laneAreaDetector file="e2output.xml" freq="60" friendlyPos="x" id="B3A3_2" lane="B3A3_2" length="250" pos="321.79999999999995"/>
    <laneAreaDetector file="e2output.xml" freq="60" friendlyPos="x" id="left3A3_0" lane="left3A3_0" length="250" pos="135.39999999999998"/>
    <laneAreaDetector file="e2output.xml" freq="60" friendlyPos="x" id="left3A3_1" lane="left3A3_1" length="250" pos="135.39999999999998"/>
    <laneAreaDetector file="e2output.xml" freq="60" friendlyPos="x" id="left3A3_2" lane="left3A3_2" length="250" pos="135.39999999999998"/>
    <laneAreaDetector file="e2output.xml" freq="60" friendlyPos="x" id="A2B2_0" lane="A2B2_0" length="250" pos="321.79999999999995"/>
    <laneAreaDetector file="e2output.xml" freq="60" friendlyPos="x" id="A2B2_1" lane="A2B2_1" length="250" pos="321.79999999999995"/>
    <laneAreaDetector file="e2output.xml" freq="60" friendlyPos="x" id="A2B2_2" lane="A2B2_2" length="250" pos="321.79999999999995"/>
    <laneAreaDetector file="e2output.xml" freq="60" friendlyPos="x" id="B1B2_0" lane="B1B2_0" length="250" pos="321.79999999999995"/>
    <laneAreaDetector file="e2output.xml" freq="60" friendlyPos="x" id="B1B2_1" lane="B1B2_1" length="250" pos="321.79999999999995"/>
    <laneAreaDetector file="e2output.xml" freq="60" friendlyPos="x" id="B1B2_2" lane="B1B2_2" length="250" pos="321.79999999999995"/>
    <laneAreaDetector file="e2output.xml" freq="60" friendlyPos="x" id="B3B2_0" lane="B3B2_0" length="250" pos="321.79999999999995"/>
    <laneAreaDetector file="e2output.xml" freq="60" friendlyPos="x" id="B3B2_1" lane="B3B2_1" length="250" pos="321.79999999999995"/>
    <laneAreaDetector file="e2output.xml" freq="60" friendlyPos="x" id="B3B2_2" lane="B3B2_2" length="250" pos="321.79999999999995"/>
    <laneAreaDetector file="e2output.xml" freq="60" friendlyPos="x" id="C2B2_0" lane="C2B2_0" length="250" pos="321.79999999999995"/>
    <laneAreaDetector file="e2output.xml" freq="60" friendlyPos="x" id="C2B2_1" lane="C2B2_1" length="250" pos="321.79999999999995"/>
    <laneAreaDetector file="e2output.xml" freq="60" friendlyPos="x" id="C2B2_2" lane="C2B2_2" length="250" pos="321.79999999999995"/>
    <laneAreaDetector file="e2output.xml" freq="60" friendlyPos="x" id="A2left2_2" lane="A2left2_2" length="250" pos="135.39999999999998"/>
    <laneAreaDetector file="e2output.xml" freq="60" friendlyPos="x" id="A3A4_0" lane="A3A4_0" length="250" pos="321.79999999999995"/>
    <laneAreaDetector file="e2output.xml" freq="60" friendlyPos="x" id="A3A4_1" lane="A3A4_1" length="250" pos="321.79999999999995"/>
    <laneAreaDetector file="e2output.xml" freq="60" friendlyPos="x" id="A3A4_2" lane="A3A4_2" length="250" pos="321.79999999999995"/>
    <laneAreaDetector file="e2output.xml" freq="60" friendlyPos="x" id="A5A4_0" lane="A5A4_0" length="250" pos="321.79999999999995"/>
    <laneAreaDetector file="e2output.xml" freq="60" friendlyPos="x" id="A5A4_1" lane="A5A4_1" length="250" pos="321.79999999999995"/>
    <laneAreaDetector file="e2output.xml" freq="60" friendlyPos="x" id="A5A4_2" lane="A5A4_2" length="250" pos="321.79999999999995"/>
    <laneAreaDetector file="e2output.xml" freq="60" friendlyPos="x" id="B4A4_0" lane="B4A4_0" length="250" pos="321.79999999999995"/>
    <laneAreaDetector file="e2output.xml" freq="60" friendlyPos="x" id="B4A4_1" lane="B4A4_1" length="250" pos="321.79999999999995"/>
    <laneAreaDetector file="e2output.xml" freq="60" friendlyPos="x" id="B4A4_2" lane="B4A4_2" length="250" pos="321.79999999999995"/>
    <laneAreaDetector file="e2output.xml" freq="60" friendlyPos="x" id="left4A4_0" lane="left4A4_0" length="250" pos="135.39999999999998"/>
    <laneAreaDetector file="e2output.xml" freq="60" friendlyPos="x" id="left4A4_1" lane="left4A4_1" length="250" pos="135.39999999999998"/>
    <laneAreaDetector file="e2output.xml" freq="60" friendlyPos="x" id="left4A4_2" lane="left4A4_2" length="250" pos="135.39999999999998"/>
    <laneAreaDetector file="e2output.xml" freq="60" friendlyPos="x" id="A3B3_0" lane="A3B3_0" length="250" pos="321.79999999999995"/>
    <laneAreaDetector file="e2output.xml" freq="60" friendlyPos="x" id="A3B3_1" lane="A3B3_1" length="250" pos="321.79999999999995"/>
    <laneAreaDetector file="e2output.xml" freq="60" friendlyPos="x" id="A3B3_2" lane="A3B3_2" length="250" pos="321.79999999999995"/>
    <laneAreaDetector file="e2output.xml" freq="60" friendlyPos="x" id="B2B3_0" lane="B2B3_0" length="250" pos="321.79999999999995"/>
    <laneAreaDetector file="e2output.xml" freq="60" friendlyPos="x" id="B2B3_1" lane="B2B3_1" length="250" pos="321.79999999999995"/>
    <laneAreaDetector file="e2output.xml" freq="60" friendlyPos="x" id="B2B3_2" lane="B2B3_2" length="250" pos="321.79999999999995"/>
    <laneAreaDetector file="e2output.xml" freq="60" friendlyPos="x" id="B4B3_0" lane="B4B3_0" length="250" pos="321.79999999999995"/>
    <laneAreaDetector file="e2output.xml" freq="60" friendlyPos="x" id="B4B3_1" lane="B4B3_1" length="250" pos="321.79999999999995"/>
    <laneAreaDetector file="e2output.xml" freq="60" friendlyPos="x" id="B4B3_2" lane="B4B3_2" length="250" pos="321.79999999999995"/>
    <laneAreaDetector file="e2output.xml" freq="60" friendlyPos="x" id="C3B3_0" lane="C3B3_0" length="250" pos="321.79999999999995"/>
    <laneAreaDetector file="e2output.xml" freq="60" friendlyPos="x" id="C3B3_1" lane="C3B3_1" length="250" pos="321.79999999999995"/>
    <laneAreaDetector file="e2output.xml" freq="60" friendlyPos="x" id="C3B3_2" lane="C3B3_2" length="250" pos="321.79999999999995"/>
    <laneAreaDetector file="e2output.xml" freq="60" friendlyPos="x" id="A3left3_2" lane="A3left3_2" length="250" pos="135.39999999999998"/>
    <laneAreaDetector file="e2output.xml" freq="60" friendlyPos="x" id="A4A5_0" lane="A4A5_0" length="250" pos="321.79999999999995"/>
    <laneAreaDetector file="e2output.xml" freq="60" friendlyPos="x" id="A4A5_1" lane="A4A5_1" length="250" pos="321.79999999999995"/>
    <laneAreaDetector file="e2output.xml" freq="60" friendlyPos="x" id="A4A5_2" lane="A4A5_2" length="250" pos="321.79999999999995"/>
    <laneAreaDetector file="e2output.xml" freq="60" friendlyPos="x" id="B5A5_0" lane="B5A5_0" length="250" pos="321.79999999999995"/>
    <laneAreaDetector file="e2output.xml" freq="60" friendlyPos="x" id="B5A5_1" lane="B5A5_1" length="250" pos="321.79999999999995"/>
    <laneAreaDetector file="e2output.xml" freq="60" friendlyPos="x" id="B5A5_2" lane="B5A5_2" length="250" pos="321.79999999999995"/>
    <laneAreaDetector file="e2output.xml" freq="60" friendlyPos="x" id="left5A5_0" lane="left5A5_0" length="250" pos="135.39999999999998"/>
    <laneAreaDetector file="e2output.xml" freq="60" friendlyPos="x" id="left5A5_1" lane="left5A5_1" length="250" pos="135.39999999999998"/>
    <laneAreaDetector file="e2output.xml" freq="60" friendlyPos="x" id="left5A5_2" lane="left5A5_2" length="250" pos="135.39999999999998"/>
    <laneAreaDetector file="e2output.xml" freq="60" friendlyPos="x" id="top0A5_0" lane="top0A5_0" length="250" pos="135.39999999999998"/>
    <laneAreaDetector file="e2output.xml" freq="60" friendlyPos="x" id="top0A5_1" lane="top0A5_1" length="250" pos="135.39999999999998"/>
    <laneAreaDetector file="e2output.xml" freq="60" friendlyPos="x" id="top0A5_2" lane="top0A5_2" length="250" pos="135.39999999999998"/>
    <laneAreaDetector file="e2output.xml" freq="60" friendlyPos="x" id="A4B4_0" lane="A4B4_0" length="250" pos="321.79999999999995"/>
    <laneAreaDetector file="e2output.xml" freq="60" friendlyPos="x" id="A4B4_1" lane="A4B4_1" length="250" pos="321.79999999999995"/>
    <laneAreaDetector file="e2output.xml" freq="60" friendlyPos="x" id="A4B4_2" lane="A4B4_2" length="250" pos="321.79999999999995"/>
    <laneAreaDetector file="e2output.xml" freq="60" friendlyPos="x" id="B3B4_0" lane="B3B4_0" length="250" pos="321.79999999999995"/>
    <laneAreaDetector file="e2output.xml" freq="60" friendlyPos="x" id="B3B4_1" lane="B3B4_1" length="250" pos="321.79999999999995"/>
    <laneAreaDetector file="e2output.xml" freq="60" friendlyPos="x" id="B3B4_2" lane="B3B4_2" length="250" pos="321.79999999999995"/>
    <laneAreaDetector file="e2output.xml" freq="60" friendlyPos="x" id="B5B4_0" lane="B5B4_0" length="250" pos="321.79999999999995"/>
    <laneAreaDetector file="e2output.xml" freq="60" friendlyPos="x" id="B5B4_1" lane="B5B4_1" length="250" pos="321.79999999999995"/>
    <laneAreaDetector file="e2output.xml" freq="60" friendlyPos="x" id="B5B4_2" lane="B5B4_2" length="250" pos="321.79999999999995"/>
    <laneAreaDetector file="e2output.xml" freq="60" friendlyPos="x" id="C4B4_0" lane="C4B4_0" length="250" pos="321.79999999999995"/>
    <laneAreaDetector file="e2output.xml" freq="60" friendlyPos="x" id="C4B4_1" lane="C4B4_1" length="250" pos="321.79999999999995"/>
    <laneAreaDetector file="e2output.xml" freq="60" friendlyPos="x" id="C4B4_2" lane="C4B4_2" length="250" pos="321.79999999999995"/>
    <laneAreaDetector file="e2output.xml" freq="60" friendlyPos="x" id="A4left4_2" lane="A4left4_2" length="250" pos="135.39999999999998"/>
    <laneAreaDetector file="e2output.xml" freq="60" friendlyPos="x" id="A5B5_0" lane="A5B5_0" length="250" pos="321.79999999999995"/>
    <laneAreaDetector file="e2output.xml" freq="60" friendlyPos="x" id="A5B5_1" lane="A5B5_1" length="250" pos="321.79999999999995"/>
    <laneAreaDetector file="e2output.xml" freq="60" friendlyPos="x" id="A5B5_2" lane="A5B5_2" length="250" pos="321.79999999999995"/>
    <laneAreaDetector file="e2output.xml" freq="60" friendlyPos="x" id="B4B5_0" lane="B4B5_0" length="250" pos="321.79999999999995"/>
    <laneAreaDetector file="e2output.xml" freq="60" friendlyPos="x" id="B4B5_1" lane="B4B5_1" length="250" pos="321.79999999999995"/>
    <laneAreaDetector file="e2output.xml" freq="60" friendlyPos="x" id="B4B5_2" lane="B4B5_2" length="250" pos="321.79999999999995"/>
    <laneAreaDetector file="e2output.xml" freq="60" friendlyPos="x" id="C5B5_0" lane="C5B5_0" length="250" pos="321.79999999999995"/>
    <laneAreaDetector file="e2output.xml" freq="60" friendlyPos="x" id="C5B5_1" lane="C5B5_1" length="250" pos="321.79999999999995"/>
    <laneAreaDetector file="e2output.xml" freq="60" friendlyPos="x" id="C5B5_2" lane="C5B5_2" length="250" pos="321.79999999999995"/>
    <laneAreaDetector file="e2output.xml" freq="60" friendlyPos="x" id="top1B5_0" lane="top1B5_0" length="250" pos="135.39999999999998"/>
    <laneAreaDetector file="e2output.xml" freq="60" friendlyPos="x" id="top1B5_1" lane="top1B5_1" length="250" pos="135.39999999999998"/>
    <laneAreaDetector file="e2output.xml" freq="60" friendlyPos="x" id="top1B5_2" lane="top1B5_2" length="250" pos="135.39999999999998"/>
    <laneAreaDetector file="e2output.xml" freq="60" friendlyPos="x" id="A5left5_2" lane="A5left5_2" length="250" pos="135.39999999999998"/>
    <laneAreaDetector file="e2output.xml" freq="60" friendlyPos="x" id="A5top0_2" lane="A5top0_2" length="250" pos="135.39999999999998"/>
    <laneAreaDetector file="e2output.xml" freq="60" friendlyPos="x" id="B0C0_0" lane="B0C0_0" length="250" pos="321.79999999999995"/>
    <laneAreaDetector file="e2output.xml" freq="60" friendlyPos="x" id="B0C0_1" lane="B0C0_1" length="250" pos="321.79999999999995"/>
    <laneAreaDetector file="e2output.xml" freq="60" friendlyPos="x" id="B0C0_2" lane="B0C0_2" length="250" pos="321.79999999999995"/>
    <laneAreaDetector file="e2output.xml" freq="60" friendlyPos="x" id="C1C0_0" lane="C1C0_0" length="250" pos="321.79999999999995"/>
    <laneAreaDetector file="e2output.xml" freq="60" friendlyPos="x" id="C1C0_1" lane="C1C0_1" length="250" pos="321.79999999999995"/>
    <laneAreaDetector file="e2output.xml" freq="60" friendlyPos="x" id="C1C0_2" lane="C1C0_2" length="250" pos="321.79999999999995"/>
    <laneAreaDetector file="e2output.xml" freq="60" friendlyPos="x" id="D0C0_0" lane="D0C0_0" length="250" pos="321.79999999999995"/>
    <laneAreaDetector file="e2output.xml" freq="60" friendlyPos="x" id="D0C0_1" lane="D0C0_1" length="250" pos="321.79999999999995"/>
    <laneAreaDetector file="e2output.xml" freq="60" friendlyPos="x" id="D0C0_2" lane="D0C0_2" length="250" pos="321.79999999999995"/>
    <laneAreaDetector file="e2output.xml" freq="60" friendlyPos="x" id="bottom2C0_0" lane="bottom2C0_0" length="250" pos="135.39999999999998"/>
    <laneAreaDetector file="e2output.xml" freq="60" friendlyPos="x" id="bottom2C0_1" lane="bottom2C0_1" length="250" pos="135.39999999999998"/>
    <laneAreaDetector file="e2output.xml" freq="60" friendlyPos="x" id="bottom2C0_2" lane="bottom2C0_2" length="250" pos="135.39999999999998"/>
    <laneAreaDetector file="e2output.xml" freq="60" friendlyPos="x" id="B0bottom1_2" lane="B0bottom1_2" length="250" pos="135.39999999999998"/>
    <laneAreaDetector file="e2output.xml" freq="60" friendlyPos="x" id="B1C1_0" lane="B1C1_0" length="250" pos="321.79999999999995"/>
    <laneAreaDetector file="e2output.xml" freq="60" friendlyPos="x" id="B1C1_1" lane="B1C1_1" length="250" pos="321.79999999999995"/>
    <laneAreaDetector file="e2output.xml" freq="60" friendlyPos="x" id="B1C1_2" lane="B1C1_2" length="250" pos="321.79999999999995"/>
    <laneAreaDetector file="e2output.xml" freq="60" friendlyPos="x" id="C0C1_0" lane="C0C1_0" length="250" pos="321.79999999999995"/>
    <laneAreaDetector file="e2output.xml" freq="60" friendlyPos="x" id="C0C1_1" lane="C0C1_1" length="250" pos="321.79999999999995"/>
    <laneAreaDetector file="e2output.xml" freq="60" friendlyPos="x" id="C0C1_2" lane="C0C1_2" length="250" pos="321.79999999999995"/>
    <laneAreaDetector file="e2output.xml" freq="60" friendlyPos="x" id="C2C1_0" lane="C2C1_0" length="250" pos="321.79999999999995"/>
    <laneAreaDetector file="e2output.xml" freq="60" friendlyPos="x" id="C2C1_1" lane="C2C1_1" length="250" pos="321.79999999999995"/>
    <laneAreaDetector file="e2output.xml" freq="60" friendlyPos="x" id="C2C1_2" lane="C2C1_2" length="250" pos="321.79999999999995"/>
    <laneAreaDetector file="e2output.xml" freq="60" friendlyPos="x" id="D1C1_0" lane="D1C1_0" length="250" pos="321.79999999999995"/>
    <laneAreaDetector file="e2output.xml" freq="60" friendlyPos="x" id="D1C1_1" lane="D1C1_1" length="250" pos="321.79999999999995"/>
    <laneAreaDetector file="e2output.xml" freq="60" friendlyPos="x" id="D1C1_2" lane="D1C1_2" length="250" pos="321.79999999999995"/>
    <laneAreaDetector file="e2output.xml" freq="60" friendlyPos="x" id="B2C2_0" lane="B2C2_0" length="250" pos="321.79999999999995"/>
    <laneAreaDetector file="e2output.xml" freq="60" friendlyPos="x" id="B2C2_1" lane="B2C2_1" length="250" pos="321.79999999999995"/>
    <laneAreaDetector file="e2output.xml" freq="60" friendlyPos="x" id="B2C2_2" lane="B2C2_2" length="250" pos="321.79999999999995"/>
    <laneAreaDetector file="e2output.xml" freq="60" friendlyPos="x" id="C1C2_0" lane="C1C2_0" length="250" pos="321.79999999999995"/>
    <laneAreaDetector file="e2output.xml" freq="60" friendlyPos="x" id="C1C2_1" lane="C1C2_1" length="250" pos="321.79999999999995"/>
    <laneAreaDetector file="e2output.xml" freq="60" friendlyPos="x" id="C1C2_2" lane="C1C2_2" length="250" pos="321.79999999999995"/>
    <laneAreaDetector file="e2output.xml" freq="60" friendlyPos="x" id="C3C2_0" lane="C3C2_0" length="250" pos="321.79999999999995"/>
    <laneAreaDetector file="e2output.xml" freq="60" friendlyPos="x" id="C3C2_1" lane="C3C2_1" length="250" pos="321.79999999999995"/>
    <laneAreaDetector file="e2output.xml" freq="60" friendlyPos="x" id="C3C2_2" lane="C3C2_2" length="250" pos="321.79999999999995"/>
    <laneAreaDetector file="e2output.xml" freq="60" friendlyPos="x" id="D2C2_0" lane="D2C2_0" length="250" pos="321.79999999999995"/>
    <laneAreaDetector file="e2output.xml" freq="60" friendlyPos="x" id="D2C2_1" lane="D2C2_1" length="250" pos="321.79999999999995"/>
    <laneAreaDetector file="e2output.xml" freq="60" friendlyPos="x" id="D2C2_2" lane="D2C2_2" length="250" pos="321.79999999999995"/>
    <laneAreaDetector file="e2output.xml" freq="60" friendlyPos="x" id="B3C3_0" lane="B3C3_0" length="250" pos="321.79999999999995"/>
    <laneAreaDetector file="e2output.xml" freq="60" friendlyPos="x" id="B3C3_1" lane="B3C3_1" length="250" pos="321.79999999999995"/>
    <laneAreaDetector file="e2output.xml" freq="60" friendlyPos="x" id="B3C3_2" lane="B3C3_2" length="250" pos="321.79999999999995"/>
    <laneAreaDetector file="e2output.xml" freq="60" friendlyPos="x" id="C2C3_0" lane="C2C3_0" length="250" pos="321.79999999999995"/>
    <laneAreaDetector file="e2output.xml" freq="60" friendlyPos="x" id="C2C3_1" lane="C2C3_1" length="250" pos="321.79999999999995"/>
    <laneAreaDetector file="e2output.xml" freq="60" friendlyPos="x" id="C2C3_2" lane="C2C3_2" length="250" pos="321.79999999999995"/>
    <laneAreaDetector file="e2output.xml" freq="60" friendlyPos="x" id="C4C3_0" lane="C4C3_0" length="250" pos="321.79999999999995"/>
    <laneAreaDetector file="e2output.xml" freq="60" friendlyPos="x" id="C4C3_1" lane="C4C3_1" length="250" pos="321.79999999999995"/>
    <laneAreaDetector file="e2output.xml" freq="60" friendlyPos="x" id="C4C3_2" lane="C4C3_2" length="250" pos="321.79999999999995"/>
    <laneAreaDetector file="e2output.xml" freq="60" friendlyPos="x" id="D3C3_0" lane="D3C3_0" length="250" pos="321.79999999999995"/>
    <laneAreaDetector file="e2output.xml" freq="60" friendlyPos="x" id="D3C3_1" lane="D3C3_1" length="250" pos="321.79999999999995"/>
    <laneAreaDetector file="e2output.xml" freq="60" friendlyPos="x" id="D3C3_2" lane="D3C3_2" length="250" pos="321.79999999999995"/>
    <laneAreaDetector file="e2output.xml" freq="60" friendlyPos="x" id="B4C4_0" lane="B4C4_0" length="250" pos="321.79999999999995"/>
    <laneAreaDetector file="e2output.xml" freq="60" friendlyPos="x" id="B4C4_1" lane="B4C4_1" length="250" pos="321.79999999999995"/>
    <laneAreaDetector file="e2output.xml" freq="60" friendlyPos="x" id="B4C4_2" lane="B4C4_2" length="250" pos="321.79999999999995"/>
    <laneAreaDetector file="e2output.xml" freq="60" friendlyPos="x" id="C3C4_0" lane="C3C4_0" length="250" pos="321.79999999999995"/>
    <laneAreaDetector file="e2output.xml" freq="60" friendlyPos="x" id="C3C4_1" lane="C3C4_1" length="250" pos="321.79999999999995"/>
    <laneAreaDetector file="e2output.xml" freq="60" friendlyPos="x" id="C3C4_2" lane="C3C4_2" length="250" pos="321.79999999999995"/>
    <laneAreaDetector file="e2output.xml" freq="60" friendlyPos="x" id="C5C4_0" lane="C5C4_0" length="250" pos="321.79999999999995"/>
    <laneAreaDetector file="e2output.xml" freq="60" friendlyPos="x" id="C5C4_1" lane="C5C4_1" length="250" pos="321.79999999999995"/>
    <laneAreaDetector file="e2output.xml" freq="60" friendlyPos="x" id="C5C4_2" lane="C5C4_2" length="250" pos="321.79999999999995"/>
    <laneAreaDetector file="e2output.xml" freq="60" friendlyPos="x" id="D4C4_0" lane="D4C4_0" length="250" pos="321.79999999999995"/>
    <laneAreaDetector file="e2output.xml" freq="60" friendlyPos="x" id="D4C4_1" lane="D4C4_1" length="250" pos="321.79999999999995"/>
    <laneAreaDetector file="e2output.xml" freq="60" friendlyPos="x" id="D4C4_2" lane="D4C4_2" length="250" pos="321.79999999999995"/>
    <laneAreaDetector file="e2output.xml" freq="60" friendlyPos="x" id="B5C5_0" lane="B5C5_0" length="250" pos="321.79999999999995"/>
    <laneAreaDetector file="e2output.xml" freq="60" friendlyPos="x" id="B5C5_1" lane="B5C5_1" length="250" pos="321.79999999999995"/>
    <laneAreaDetector file="e2output.xml" freq="60" friendlyPos="x" id="B5C5_2" lane="B5C5_2" length="250" pos="321.79999999999995"/>
    <laneAreaDetector file="e2output.xml" freq="60" friendlyPos="x" id="C4C5_0" lane="C4C5_0" length="250" pos="321.79999999999995"/>
    <laneAreaDetector file="e2output.xml" freq="60" friendlyPos="x" id="C4C5_1" lane="C4C5_1" length="250" pos="321.79999999999995"/>
    <laneAreaDetector file="e2output.xml" freq="60" friendlyPos="x" id="C4C5_2" lane="C4C5_2" length="250" pos="321.79999999999995"/>
    <laneAreaDetector file="e2output.xml" freq="60" friendlyPos="x" id="D5C5_0" lane="D5C5_0" length="250" pos="321.79999999999995"/>