<?xml version="1.0" encoding="UTF-8"?>

<!-- generated on 2022-09-10 11:31:38 by Eclipse SUMO netedit Version 1.13.0
<configuration xmlns:xsi="http://www.w3.org/2001/XMLSchema-instance" xsi:noNamespaceSchemaLocation="http://sumo.dlr.de/xsd/netconvertConfiguration.xsd">

    <input>
        <sumo-net-file value="/home/thamil/veins-5.2/veins-veins-5.2/examples/veins/gridExp.net.xml"/>
    </input>

    <output>
        <output-file value="/home/thamil/veins-5.2/veins-veins-5.2/examples/veins/gridExp.net.xml"/>
    </output>

    <processing>
        <geometry.min-radius.fix.railways value="false"/>
        <geometry.max-grade.fix value="false"/>
        <offset.disable-normalization value="true"/>
        <lefthand value="false"/>
    </processing>

    <junctions>
        <no-turnarounds value="true"/>
        <junctions.corner-detail value="5"/>
        <junctions.limit-turn-speed value="5.5"/>
        <rectangular-lane-cut value="false"/>
    </junctions>

    <pedestrian>
        <walkingareas value="false"/>
    </pedestrian>

    <report>
        <aggregate-warnings value="5"/>
    </report>

</configuration>
-->

<net version="1.9" junctionCornerDetail="5" limitTurnSpeed="5.50" xmlns:xsi="http://www.w3.org/2001/XMLSchema-instance" xsi:noNamespaceSchemaLocation="http://sumo.dlr.de/xsd/net_file.xsd">

    <location netOffset="0.00,0.00" convBoundary="0.00,0.00,3800.00,3800.00" origBoundary="0.00,0.00,3800.00,3800.00" projParameter="!"/>

    <edge id=":A0_0" function="internal">
        <lane id=":A0_0_0" index="0" speed="6.51" length="9.03" shape="392.00,413.60 391.65,411.15 390.60,409.40 388.85,408.35 386.40,408.00"/>
    </edge>
    <edge id=":A0_1" function="internal">
        <lane id=":A0_1_0" index="0" speed="13.89" length="27.20" shape="392.00,413.60 392.00,386.40"/>
        <lane id=":A0_1_1" index="1" speed="13.89" length="27.20" shape="395.20,413.60 395.20,386.40"/>
        <lane id=":A0_1_2" index="2" speed="13.89" length="27.20" shape="398.40,413.60 398.40,386.40"/>
    </edge>
    <edge id=":A0_4" function="internal">
        <lane id=":A0_4_0" index="0" speed="10.36" length="5.01" shape="398.40,413.60 399.11,408.64"/>
    </edge>
    <edge id=":A0_5" function="internal">
        <lane id=":A0_5_0" index="0" speed="3.65" length="1.44" shape="398.40,413.60 399.20,412.40"/>
    </edge>
    <edge id=":A0_24" function="internal">
        <lane id=":A0_24_0" index="0" speed="10.36" length="19.50" shape="399.11,408.64 399.35,406.95 402.20,402.20 406.95,399.35 413.60,398.40"/>
    </edge>
    <edge id=":A0_25" function="internal">
        <lane id=":A0_25_0" index="0" speed="3.65" length="3.23" shape="399.20,412.40 400.00,412.00 400.80,412.40 401.60,413.60"/>
    </edge>
    <edge id=":A0_6" function="internal">
        <lane id=":A0_6_0" index="0" speed="6.51" length="9.03" shape="413.60,408.00 411.15,408.35 409.40,409.40 408.35,411.15 408.00,413.60"/>
    </edge>
    <edge id=":A0_7" function="internal">
        <lane id=":A0_7_0" index="0" speed="13.89" length="27.20" shape="413.60,408.00 386.40,408.00"/>
        <lane id=":A0_7_1" index="1" speed="13.89" length="27.20" shape="413.60,404.80 386.40,404.80"/>
        <lane id=":A0_7_2" index="2" speed="13.89" length="27.20" shape="413.60,401.60 386.40,401.60"/>
    </edge>
    <edge id=":A0_10" function="internal">
        <lane id=":A0_10_0" index="0" speed="10.36" length="5.01" shape="413.60,401.60 408.64,400.89"/>
    </edge>
    <edge id=":A0_11" function="internal">
        <lane id=":A0_11_0" index="0" speed="3.65" length="1.44" shape="413.60,401.60 412.40,400.80"/>
    </edge>
    <edge id=":A0_26" function="internal">
        <lane id=":A0_26_0" index="0" speed="10.36" length="19.50" shape="408.64,400.89 406.95,400.65 402.20,397.80 399.35,393.05 398.40,386.40"/>
    </edge>
    <edge id=":A0_27" function="internal">
        <lane id=":A0_27_0" index="0" speed="3.65" length="3.23" shape="412.40,400.80 412.00,400.00 412.40,399.20 413.60,398.40"/>
    </edge>
    <edge id=":A0_12" function="internal">
        <lane id=":A0_12_0" index="0" speed="6.51" length="9.03" shape="408.00,386.40 408.35,388.85 409.40,390.60 411.15,391.65 413.60,392.00"/>
    </edge>
    <edge id=":A0_13" function="internal">
        <lane id=":A0_13_0" index="0" speed="13.89" length="27.20" shape="408.00,386.40 408.00,413.60"/>
        <lane id=":A0_13_1" index="1" speed="13.89" length="27.20" shape="404.80,386.40 404.80,413.60"/>
        <lane id=":A0_13_2" index="2" speed="13.89" length="27.20" shape="401.60,386.40 401.60,413.60"/>
    </edge>
    <edge id=":A0_16" function="internal">
        <lane id=":A0_16_0" index="0" speed="10.36" length="5.01" shape="401.60,386.40 400.89,391.36"/>
    </edge>
    <edge id=":A0_17" function="internal">
        <lane id=":A0_17_0" index="0" speed="3.65" length="1.44" shape="401.60,386.40 400.80,387.60"/>
    </edge>
    <edge id=":A0_28" function="internal">
        <lane id=":A0_28_0" index="0" speed="10.36" length="19.50" shape="400.89,391.36 400.65,393.05 397.80,397.80 393.05,400.65 386.40,401.60"/>
    </edge>
    <edge id=":A0_29" function="internal">
        <lane id=":A0_29_0" index="0" speed="3.65" length="3.23" shape="400.80,387.60 400.00,388.00 399.20,387.60 398.40,386.40"/>
    </edge>
    <edge id=":A0_18" function="internal">
        <lane id=":A0_18_0" index="0" speed="6.51" length="9.03" shape="386.40,392.00 388.85,391.65 390.60,390.60 391.65,388.85 392.00,386.40"/>
    </edge>
    <edge id=":A0_19" function="internal">
        <lane id=":A0_19_0" index="0" speed="13.89" length="27.20" shape="386.40,392.00 413.60,392.00"/>
        <lane id=":A0_19_1" index="1" speed="13.89" length="27.20" shape="386.40,395.20 413.60,395.20"/>
        <lane id=":A0_19_2" index="2" speed="13.89" length="27.20" shape="386.40,398.40 413.60,398.40"/>
    </edge>
    <edge id=":A0_22" function="internal">
        <lane id=":A0_22_0" index="0" speed="10.36" length="5.01" shape="386.40,398.40 391.36,399.11"/>
    </edge>
    <edge id=":A0_23" function="internal">
        <lane id=":A0_23_0" index="0" speed="3.65" length="1.44" shape="386.40,398.40 387.60,399.20"/>
    </edge>
    <edge id=":A0_30" function="internal">
        <lane id=":A0_30_0" index="0" speed="10.36" length="19.50" shape="391.36,399.11 393.05,399.35 397.80,402.20 400.65,406.95 401.60,413.60"/>
    </edge>
    <edge id=":A0_31" function="internal">
        <lane id=":A0_31_0" index="0" speed="3.65" length="3.23" shape="387.60,399.20 388.00,400.00 387.60,400.80 386.40,401.60"/>
    </edge>
    <edge id=":A1_0" function="internal">
        <lane id=":A1_0_0" index="0" speed="6.51" length="9.03" shape="392.00,1013.60 391.65,1011.15 390.60,1009.40 388.85,1008.35 386.40,1008.00"/>
    </edge>
    <edge id=":A1_1" function="internal">
        <lane id=":A1_1_0" index="0" speed="13.89" length="27.20" shape="392.00,1013.60 392.00,986.40"/>
        <lane id=":A1_1_1" index="1" speed="13.89" length="27.20" shape="395.20,1013.60 395.20,986.40"/>
        <lane id=":A1_1_2" index="2" speed="13.89" length="27.20" shape="398.40,1013.60 398.40,986.40"/>
    </edge>
    <edge id=":A1_4" function="internal">
        <lane id=":A1_4_0" index="0" speed="10.36" length="5.01" shape="398.40,1013.60 399.11,1008.64"/>
    </edge>
    <edge id=":A1_5" function="internal">
        <lane id=":A1_5_0" index="0" speed="3.65" length="1.44" shape="398.40,1013.60 399.20,1012.40"/>
    </edge>
    <edge id=":A1_24" function="internal">
        <lane id=":A1_24_0" index="0" speed="10.36" length="19.50" shape="399.11,1008.64 399.35,1006.95 402.20,1002.20 406.95,999.35 413.60,998.40"/>
    </edge>
    <edge id=":A1_25" function="internal">
        <lane id=":A1_25_0" index="0" speed="3.65" length="3.23" shape="399.20,1012.40 400.00,1012.00 400.80,1012.40 401.60,1013.60"/>
    </edge>
    <edge id=":A1_6" function="internal">
        <lane id=":A1_6_0" index="0" speed="6.51" length="9.03" shape="413.60,1008.00 411.15,1008.35 409.40,1009.40 408.35,1011.15 408.00,1013.60"/>
    </edge>
    <edge id=":A1_7" function="internal">
        <lane id=":A1_7_0" index="0" speed="13.89" length="27.20" shape="413.60,1008.00 386.40,1008.00"/>
        <lane id=":A1_7_1" index="1" speed="13.89" length="27.20" shape="413.60,1004.80 386.40,1004.80"/>
        <lane id=":A1_7_2" index="2" speed="13.89" length="27.20" shape="413.60,1001.60 386.40,1001.60"/>
    </edge>
    <edge id=":A1_10" function="internal">
        <lane id=":A1_10_0" index="0" speed="10.36" length="5.01" shape="413.60,1001.60 408.64,1000.89"/>
    </edge>
    <edge id=":A1_11" function="internal">
        <lane id=":A1_11_0" index="0" speed="3.65" length="1.44" shape="413.60,1001.60 412.40,1000.80"/>
    </edge>
    <edge id=":A1_26" function="internal">
        <lane id=":A1_26_0" index="0" speed="10.36" length="19.50" shape="408.64,1000.89 406.95,1000.65 402.20,997.80 399.35,993.05 398.40,986.40"/>
    </edge>
    <edge id=":A1_27" function="internal">
        <lane id=":A1_27_0" index="0" speed="3.65" length="3.23" shape="412.40,1000.80 412.00,1000.00 412.40,999.20 413.60,998.40"/>
    </edge>
    <edge id=":A1_12" function="internal">
        <lane id=":A1_12_0" index="0" speed="6.51" length="9.03" shape="408.00,986.40 408.35,988.85 409.40,990.60 411.15,991.65 413.60,992.00"/>
    </edge>
    <edge id=":A1_13" function="internal">
        <lane id=":A1_13_0" index="0" speed="13.89" length="27.20" shape="408.00,986.40 408.00,1013.60"/>
        <lane id=":A1_13_1" index="1" speed="13.89" length="27.20" shape="404.80,986.40 404.80,1013.60"/>
        <lane id=":A1_13_2" index="2" speed="13.89" length="27.20" shape="401.60,986.40 401.60,1013.60"/>
    </edge>
    <edge id=":A1_16" function="internal">
        <lane id=":A1_16_0" index="0" speed="10.36" length="5.01" shape="401.60,986.40 400.89,991.36"/>
    </edge>
    <edge id=":A1_17" function="internal">
        <lane id=":A1_17_0" index="0" speed="3.65" length="1.44" shape="401.60,986.40 400.80,987.60"/>
    </edge>
    <edge id=":A1_28" function="internal">
        <lane id=":A1_28_0" index="0" speed="10.36" length="19.50" shape="400.89,991.36 400.65,993.05 397.80,997.80 393.05,1000.65 386.40,1001.60"/>
    </edge>
    <edge id=":A1_29" function="internal">
        <lane id=":A1_29_0" index="0" speed="3.65" length="3.23" shape="400.80,987.60 400.00,988.00 399.20,987.60 398.40,986.40"/>
    </edge>
    <edge id=":A1_18" function="internal">
        <lane id=":A1_18_0" index="0" speed="6.51" length="9.03" shape="386.40,992.00 388.85,991.65 390.60,990.60 391.65,988.85 392.00,986.40"/>
    </edge>
    <edge id=":A1_19" function="internal">
        <lane id=":A1_19_0" index="0" speed="13.89" length="27.20" shape="386.40,992.00 413.60,992.00"/>
        <lane id=":A1_19_1" index="1" speed="13.89" length="27.20" shape="386.40,995.20 413.60,995.20"/>
        <lane id=":A1_19_2" index="2" speed="13.89" length="27.20" shape="386.40,998.40 413.60,998.40"/>
    </edge>
    <edge id=":A1_22" function="internal">
        <lane id=":A1_22_0" index="0" speed="10.36" length="5.01" shape="386.40,998.40 391.36,999.11"/>
    </edge>
    <edge id=":A1_23" function="internal">
        <lane id=":A1_23_0" index="0" speed="3.65" length="1.44" shape="386.40,998.40 387.60,999.20"/>
    </edge>
    <edge id=":A1_30" function="internal">
        <lane id=":A1_30_0" index="0" speed="10.36" length="19.50" shape="391.36,999.11 393.05,999.35 397.80,1002.20 400.65,1006.95 401.60,1013.60"/>
    </edge>
    <edge id=":A1_31" function="internal">
        <lane id=":A1_31_0" index="0" speed="3.65" length="3.23" shape="387.60,999.20 388.00,1000.00 387.60,1000.80 386.40,1001.60"/>
    </edge>
    <edge id=":A2_0" function="internal">
        <lane id=":A2_0_0" index="0" speed="6.51" length="9.03" shape="392.00,1613.60 391.65,1611.15 390.60,1609.40 388.85,1608.35 386.40,1608.00"/>
    </edge>
    <edge id=":A2_1" function="internal">
        <lane id=":A2_1_0" index="0" speed="13.89" length="27.20" shape="392.00,1613.60 392.00,1586.40"/>
        <lane id=":A2_1_1" index="1" speed="13.89" length="27.20" shape="395.20,1613.60 395.20,1586.40"/>
        <lane id=":A2_1_2" index="2" speed="13.89" length="27.20" shape="398.40,1613.60 398.40,1586.40"/>
    </edge>
    <edge id=":A2_4" function="internal">
        <lane id=":A2_4_0" index="0" speed="10.36" length="5.01" shape="398.40,1613.60 399.11,1608.64"/>
    </edge>
    <edge id=":A2_5" function="internal">
        <lane id=":A2_5_0" index="0" speed="3.65" length="1.44" shape="398.40,1613.60 399.20,1612.40"/>
    </edge>
    <edge id=":A2_24" function="internal">
        <lane id=":A2_24_0" index="0" speed="10.36" length="19.50" shape="399.11,1608.64 399.35,1606.95 402.20,1602.20 406.95,1599.35 413.60,1598.40"/>
    </edge>
    <edge id=":A2_25" function="internal">
        <lane id=":A2_25_0" index="0" speed="3.65" length="3.23" shape="399.20,1612.40 400.00,1612.00 400.80,1612.40 401.60,1613.60"/>
    </edge>
    <edge id=":A2_6" function="internal">
        <lane id=":A2_6_0" index="0" speed="6.51" length="9.03" shape="413.60,1608.00 411.15,1608.35 409.40,1609.40 408.35,1611.15 408.00,1613.60"/>
    </edge>
    <edge id=":A2_7" function="internal">
        <lane id=":A2_7_0" index="0" speed="13.89" length="27.20" shape="413.60,1608.00 386.40,1608.00"/>
        <lane id=":A2_7_1" index="1" speed="13.89" length="27.20" shape="413.60,1604.80 386.40,1604.80"/>
        <lane id=":A2_7_2" index="2" speed="13.89" length="27.20" shape="413.60,1601.60 386.40,1601.60"/>
    </edge>
    <edge id=":A2_10" function="internal">
        <lane id=":A2_10_0" index="0" speed="10.36" length="5.01" shape="413.60,1601.60 408.64,1600.89"/>
    </edge>
    <edge id=":A2_11" function="internal">
        <lane id=":A2_11_0" index="0" speed="3.65" length="1.44" shape="413.60,1601.60 412.40,1600.80"/>
    </edge>
    <edge id=":A2_26" function="internal">
        <lane id=":A2_26_0" index="0" speed="10.36" length="19.50" shape="408.64,1600.89 406.95,1600.65 402.20,1597.80 399.35,1593.05 398.40,1586.40"/>
    </edge>
    <edge id=":A2_27" function="internal">
        <lane id=":A2_27_0" index="0" speed="3.65" length="3.23" shape="412.40,1600.80 412.00,1600.00 412.40,1599.20 413.60,1598.40"/>
    </edge>
    <edge id=":A2_12" function="internal">
        <lane id=":A2_12_0" index="0" speed="6.51" length="9.03" shape="408.00,1586.40 408.35,1588.85 409.40,1590.60 411.15,1591.65 413.60,1592.00"/>
    </edge>
    <edge id=":A2_13" function="internal">
        <lane id=":A2_13_0" index="0" speed="13.89" length="27.20" shape="408.00,1586.40 408.00,1613.60"/>
        <lane id=":A2_13_1" index="1" speed="13.89" length="27.20" shape="404.80,1586.40 404.80,1613.60"/>
        <lane id=":A2_13_2" index="2" speed="13.89" length="27.20" shape="401.60,1586.40 401.60,1613.60"/>
    </edge>
    <edge id=":A2_16" function="internal">
        <lane id=":A2_16_0" index="0" speed="10.36" length="5.01" shape="401.60,1586.40 400.89,1591.36"/>
    </edge>
    <edge id=":A2_17" function="internal">
        <lane id=":A2_17_0" index="0" speed="3.65" length="1.44" shape="401.60,1586.40 400.80,1587.60"/>
    </edge>
    <edge id=":A2_28" function="internal">
        <lane id=":A2_28_0" index="0" speed="10.36" length="19.50" shape="400.89,1591.36 400.65,1593.05 397.80,1597.80 393.05,1600.65 386.40,1601.60"/>
    </edge>
    <edge id=":A2_29" function="internal">
        <lane id=":A2_29_0" index="0" speed="3.65" length="3.23" shape="400.80,1587.60 400.00,1588.00 399.20,1587.60 398.40,1586.40"/>
    </edge>
    <edge id=":A2_18" function="internal">
        <lane id=":A2_18_0" index="0" speed="6.51" length="9.03" shape="386.40,1592.00 388.85,1591.65 390.60,1590.60 391.65,1588.85 392.00,1586.40"/>
    </edge>
    <edge id=":A2_19" function="internal">
        <lane id=":A2_19_0" index="0" speed="13.89" length="27.20" shape="386.40,1592.00 413.60,1592.00"/>
        <lane id=":A2_19_1" index="1" speed="13.89" length="27.20" shape="386.40,1595.20 413.60,1595.20"/>
        <lane id=":A2_19_2" index="2" speed="13.89" length="27.20" shape="386.40,1598.40 413.60,1598.40"/>
    </edge>
    <edge id=":A2_22" function="internal">
        <lane id=":A2_22_0" index="0" speed="10.36" length="5.01" shape="386.40,1598.40 391.36,1599.11"/>
    </edge>
    <edge id=":A2_23" function="internal">
        <lane id=":A2_23_0" index="0" speed="3.65" length="1.44" shape="386.40,1598.40 387.60,1599.20"/>
    </edge>
    <edge id=":A2_30" function="internal">
        <lane id=":A2_30_0" index="0" speed="10.36" length="19.50" shape="391.36,1599.11 393.05,1599.35 397.80,1602.20 400.65,1606.95 401.60,1613.60"/>
    </edge>
    <edge id=":A2_31" function="internal">
        <lane id=":A2_31_0" index="0" speed="3.65" length="3.23" shape="387.60,1599.20 388.00,1600.00 387.60,1600.80 386.40,1601.60"/>
    </edge>
    <edge id=":A3_0" function="internal">
        <lane id=":A3_0_0" index="0" speed="6.51" length="9.03" shape="392.00,2213.60 391.65,2211.15 390.60,2209.40 388.85,2208.35 386.40,2208.00"/>
    </edge>
    <edge id=":A3_1" function="internal">
        <lane id=":A3_1_0" index="0" speed="13.89" length="27.20" shape="392.00,2213.60 392.00,2186.40"/>
        <lane id=":A3_1_1" index="1" speed="13.89" length="27.20" shape="395.20,2213.60 395.20,2186.40"/>
        <lane id=":A3_1_2" index="2" speed="13.89" length="27.20" shape="398.40,2213.60 398.40,2186.40"/>
    </edge>
    <edge id=":A3_4" function="internal">
        <lane id=":A3_4_0" index="0" speed="10.36" length="5.01" shape="398.40,2213.60 399.11,2208.64"/>
    </edge>
    <edge id=":A3_5" function="internal">
        <lane id=":A3_5_0" index="0" speed="3.65" length="1.44" shape="398.40,2213.60 399.20,2212.40"/>
    </edge>
    <edge id=":A3_24" function="internal">
        <lane id=":A3_24_0" index="0" speed="10.36" length="19.50" shape="399.11,2208.64 399.35,2206.95 402.20,2202.20 406.95,2199.35 413.60,2198.40"/>
    </edge>
    <edge id=":A3_25" function="internal">
        <lane id=":A3_25_0" index="0" speed="3.65" length="3.23" shape="399.20,2212.40 400.00,2212.00 400.80,2212.40 401.60,2213.60"/>
    </edge>
    <edge id=":A3_6" function="internal">
        <lane id=":A3_6_0" index="0" speed="6.51" length="9.03" shape="413.60,2208.00 411.15,2208.35 409.40,2209.40 408.35,2211.15 408.00,2213.60"/>
    </edge>
    <edge id=":A3_7" function="internal">
        <lane id=":A3_7_0" index="0" speed="13.89" length="27.20" shape="413.60,2208.00 386.40,2208.00"/>
        <lane id=":A3_7_1" index="1" speed="13.89" length="27.20" shape="413.60,2204.80 386.40,2204.80"/>
        <lane id=":A3_7_2" index="2" speed="13.89" length="27.20" shape="413.60,2201.60 386.40,2201.60"/>
    </edge>
    <edge id=":A3_10" function="internal">
        <lane id=":A3_10_0" index="0" speed="10.36" length="5.01" shape="413.60,2201.60 408.64,2200.89"/>
    </edge>
    <edge id=":A3_11" function="internal">
        <lane id=":A3_11_0" index="0" speed="3.65" length="1.44" shape="413.60,2201.60 412.40,2200.80"/>
    </edge>
    <edge id=":A3_26" function="internal">
        <lane id=":A3_26_0" index="0" speed="10.36" length="19.50" shape="408.64,2200.89 406.95,2200.65 402.20,2197.80 399.35,2193.05 398.40,2186.40"/>
    </edge>
    <edge id=":A3_27" function="internal">
        <lane id=":A3_27_0" index="0" speed="3.65" length="3.23" shape="412.40,2200.80 412.00,2200.00 412.40,2199.20 413.60,2198.40"/>
    </edge>
    <edge id=":A3_12" function="internal">
        <lane id=":A3_12_0" index="0" speed="6.51" length="9.03" shape="408.00,2186.40 408.35,2188.85 409.40,2190.60 411.15,2191.65 413.60,2192.00"/>
    </edge>
    <edge id=":A3_13" function="internal">
        <lane id=":A3_13_0" index="0" speed="13.89" length="27.20" shape="408.00,2186.40 408.00,2213.60"/>
        <lane id=":A3_13_1" index="1" speed="13.89" length="27.20" shape="404.80,2186.40 404.80,2213.60"/>
        <lane id=":A3_13_2" index="2" speed="13.89" length="27.20" shape="401.60,2186.40 401.60,2213.60"/>
    </edge>
    <edge id=":A3_16" function="internal">
        <lane id=":A3_16_0" index="0" speed="10.36" length="5.01" shape="401.60,2186.40 400.89,2191.36"/>
    </edge>
    <edge id=":A3_17" function="internal">
        <lane id=":A3_17_0" index="0" speed="3.65" length="1.44" shape="401.60,2186.40 400.80,2187.60"/>
    </edge>
    <edge id=":A3_28" function="internal">
        <lane id=":A3_28_0" index="0" speed="10.36" length="19.50" shape="400.89,2191.36 400.65,2193.05 397.80,2197.80 393.05,2200.65 386.40,2201.60"/>
    </edge>
    <edge id=":A3_29" function="internal">
        <lane id=":A3_29_0" index="0" speed="3.65" length="3.23" shape="400.80,2187.60 400.00,2188.00 399.20,2187.60 398.40,2186.40"/>
    </edge>
    <edge id=":A3_18" function="internal">
        <lane id=":A3_18_0" index="0" speed="6.51" length="9.03" shape="386.40,2192.00 388.85,2191.65 390.60,2190.60 391.65,2188.85 392.00,2186.40"/>
    </edge>
    <edge id=":A3_19" function="internal">
        <lane id=":A3_19_0" index="0" speed="13.89" length="27.20" shape="386.40,2192.00 413.60,2192.00"/>
        <lane id=":A3_19_1" index="1" speed="13.89" length="27.20" shape="386.40,2195.20 413.60,2195.20"/>
        <lane id=":A3_19_2" index="2" speed="13.89" length="27.20" shape="386.40,2198.40 413.60,2198.40"/>
    </edge>
    <edge id=":A3_22" function="internal">
        <lane id=":A3_22_0" index="0" speed="10.36" length="5.01" shape="386.40,2198.40 391.36,2199.11"/>
    </edge>
    <edge id=":A3_23" function="internal">
        <lane id=":A3_23_0" index="0" speed="3.65" length="1.44" shape="386.40,2198.40 387.60,2199.20"/>
    </edge>
    <edge id=":A3_30" function="internal">
        <lane id=":A3_30_0" index="0" speed="10.36" length="19.50" shape="391.36,2199.11 393.05,2199.35 397.80,2202.20 400.65,2206.95 401.60,2213.60"/>
    </edge>
    <edge id=":A3_31" function="internal">
        <lane id=":A3_31_0" index="0" speed="3.65" length="3.23" shape="387.60,2199.20 388.00,2200.00 387.60,2200.80 386.40,2201.60"/>
    </edge>
    <edge id=":A4_0" function="internal">
        <lane id=":A4_0_0" index="0" speed="6.51" length="9.03" shape="392.00,2813.60 391.65,2811.15 390.60,2809.40 388.85,2808.35 386.40,2808.00"/>
    </edge>
    <edge id=":A4_1" function="internal">
        <lane id=":A4_1_0" index="0" speed="13.89" length="27.20" shape="392.00,2813.60 392.00,2786.40"/>
        <lane id=":A4_1_1" index="1" speed="13.89" length="27.20" shape="395.20,2813.60 395.20,2786.40"/>
        <lane id=":A4_1_2" index="2" speed="13.89" length="27.20" shape="398.40,2813.60 398.40,2786.40"/>
    </edge>
    <edge id=":A4_4" function="internal">
        <lane id=":A4_4_0" index="0" speed="10.36" length="5.01" shape="398.40,2813.60 399.11,2808.64"/>
    </edge>
    <edge id=":A4_5" function="internal">
        <lane id=":A4_5_0" index="0" speed="3.65" length="1.44" shape="398.40,2813.60 399.20,2812.40"/>
    </edge>
    <edge id=":A4_24" function="internal">
        <lane id=":A4_24_0" index="0" speed="10.36" length="19.50" shape="399.11,2808.64 399.35,2806.95 402.20,2802.20 406.95,2799.35 413.60,2798.40"/>
    </edge>
    <edge id=":A4_25" function="internal">
        <lane id=":A4_25_0" index="0" speed="3.65" length="3.23" shape="399.20,2812.40 400.00,2812.00 400.80,2812.40 401.60,2813.60"/>
    </edge>
    <edge id=":A4_6" function="internal">
        <lane id=":A4_6_0" index="0" speed="6.51" length="9.03" shape="413.60,2808.00 411.15,2808.35 409.40,2809.40 408.35,2811.15 408.00,2813.60"/>
    </edge>
    <edge id=":A4_7" function="internal">
        <lane id=":A4_7_0" index="0" speed="13.89" length="27.20" shape="413.60,2808.00 386.40,2808.00"/>
        <lane id=":A4_7_1" index="1" speed="13.89" length="27.20" shape="413.60,2804.80 386.40,2804.80"/>
        <lane id=":A4_7_2" index="2" speed="13.89" length="27.20" shape="413.60,2801.60 386.40,2801.60"/>
    </edge>
    <edge id=":A4_10" function="internal">
        <lane id=":A4_10_0" index="0" speed="10.36" length="5.01" shape="413.60,2801.60 408.64,2800.89"/>
    </edge>
    <edge id=":A4_11" function="internal">
        <lane id=":A4_11_0" index="0" speed="3.65" length="1.44" shape="413.60,2801.60 412.40,2800.80"/>
    </edge>
    <edge id=":A4_26" function="internal">
        <lane id=":A4_26_0" index="0" speed="10.36" length="19.50" shape="408.64,2800.89 406.95,2800.65 402.20,2797.80 399.35,2793.05 398.40,2786.40"/>
    </edge>
    <edge id=":A4_27" function="internal">
        <lane id=":A4_27_0" index="0" speed="3.65" length="3.23" shape="412.40,2800.80 412.00,2800.00 412.40,2799.20 413.60,2798.40"/>
    </edge>
    <edge id=":A4_12" function="internal">
        <lane id=":A4_12_0" index="0" speed="6.51" length="9.03" shape="408.00,2786.40 408.35,2788.85 409.40,2790.60 411.15,2791.65 413.60,2792.00"/>
    </edge>
    <edge id=":A4_13" function="internal">
        <lane id=":A4_13_0" index="0" speed="13.89" length="27.20" shape="408.00,2786.40 408.00,2813.60"/>
        <lane id=":A4_13_1" index="1" speed="13.89" length="27.20" shape="404.80,2786.40 404.80,2813.60"/>
        <lane id=":A4_13_2" index="2" speed="13.89" length="27.20" shape="401.60,2786.40 401.60,2813.60"/>
    </edge>
    <edge id=":A4_16" function="internal">
        <lane id=":A4_16_0" index="0" speed="10.36" length="5.01" shape="401.60,2786.40 400.89,2791.36"/>
    </edge>
    <edge id=":A4_17" function="internal">
        <lane id=":A4_17_0" index="0" speed="3.65" length="1.44" shape="401.60,2786.40 400.80,2787.60"/>
    </edge>
    <edge id=":A4_28" function="internal">
        <lane id=":A4_28_0" index="0" speed="10.36" length="19.50" shape="400.89,2791.36 400.65,2793.05 397.80,2797.80 393.05,2800.65 386.40,2801.60"/>
    </edge>
    <edge id=":A4_29" function="internal">
        <lane id=":A4_29_0" index="0" speed="3.65" length="3.23" shape="400.80,2787.60 400.00,2788.00 399.20,2787.60 398.40,2786.40"/>
    </edge>
    <edge id=":A4_18" function="internal">
        <lane id=":A4_18_0" index="0" speed="6.51" length="9.03" shape="386.40,2792.00 388.85,2791.65 390.60,2790.60 391.65,2788.85 392.00,2786.40"/>
    </edge>
    <edge id=":A4_19" function="internal">
        <lane id=":A4_19_0" index="0" speed="13.89" length="27.20" shape="386.40,2792.00 413.60,2792.00"/>
        <lane id=":A4_19_1" index="1" speed="13.89" length="27.20" shape="386.40,2795.20 413.60,2795.20"/>
        <lane id=":A4_19_2" index="2" speed="13.89" length="27.20" shape="386.40,2798.40 413.60,2798.40"/>
    </edge>
    <edge id=":A4_22" function="internal">
        <lane id=":A4_22_0" index="0" speed="10.36" length="5.01" shape="386.40,2798.40 391.36,2799.11"/>
    </edge>
    <edge id=":A4_23" function="internal">
        <lane id=":A4_23_0" index="0" speed="3.65" length="1.44" shape="386.40,2798.40 387.60,2799.20"/>
    </edge>
    <edge id=":A4_30" function="internal">
        <lane id=":A4_30_0" index="0" speed="10.36" length="19.50" shape="391.36,2799.11 393.05,2799.35 397.80,2802.20 400.65,2806.95 401.60,2813.60"/>
    </edge>
    <edge id=":A4_31" function="internal">
        <lane id=":A4_31_0" index="0" speed="3.65" length="3.23" shape="387.60,2799.20 388.00,2800.00 387.60,2800.80 386.40,2801.60"/>
    </edge>
    <edge id=":A5_0" function="internal">
        <lane id=":A5_0_0" index="0" speed="6.51" length="9.03" shape="392.00,3413.60 391.65,3411.15 390.60,3409.40 388.85,3408.35 386.40,3408.00"/>
    </edge>
    <edge id=":A5_1" function="internal">
        <lane id=":A5_1_0" index="0" speed="13.89" length="27.20" shape="392.00,3413.60 392.00,3386.40"/>
        <lane id=":A5_1_1" index="1" speed="13.89" length="27.20" shape="395.20,3413.60 395.20,3386.40"/>
        <lane id=":A5_1_2" index="2" speed="13.89" length="27.20" shape="398.40,3413.60 398.40,3386.40"/>
    </edge>
    <edge id=":A5_4" function="internal">
        <lane id=":A5_4_0" index="0" speed="10.36" length="5.01" shape="398.40,3413.60 399.11,3408.64"/>
    </edge>
    <edge id=":A5_5" function="internal">
        <lane id=":A5_5_0" index="0" speed="3.65" length="1.44" shape="398.40,3413.60 399.20,3412.40"/>
    </edge>
    <edge id=":A5_24" function="internal">
        <lane id=":A5_24_0" index="0" speed="10.36" length="19.50" shape="399.11,3408.64 399.35,3406.95 402.20,3402.20 406.95,3399.35 413.60,3398.40"/>
    </edge>
    <edge id=":A5_25" function="internal">
        <lane id=":A5_25_0" index="0" speed="3.65" length="3.23" shape="399.20,3412.40 400.00,3412.00 400.80,3412.40 401.60,3413.60"/>
    </edge>
    <edge id=":A5_6" function="internal">
        <lane id=":A5_6_0" index="0" speed="6.51" length="9.03" shape="413.60,3408.00 411.15,3408.35 409.40,3409.40 408.35,3411.15 408.00,3413.60"/>
    </edge>
    <edge id=":A5_7" function="internal">
        <lane id=":A5_7_0" index="0" speed="13.89" length="27.20" shape="413.60,3408.00 386.40,3408.00"/>
        <lane id=":A5_7_1" index="1" speed="13.89" length="27.20" shape="413.60,3404.80 386.40,3404.80"/>
        <lane id=":A5_7_2" index="2" speed="13.89" length="27.20" shape="413.60,3401.60 386.40,3401.60"/>
    </edge>
    <edge id=":A5_10" function="internal">
        <lane id=":A5_10_0" index="0" speed="10.36" length="5.01" shape="413.60,3401.60 408.64,3400.89"/>
    </edge>
    <edge id=":A5_11" function="internal">
        <lane id=":A5_11_0" index="0" speed="3.65" length="1.44" shape="413.60,3401.60 412.40,3400.80"/>
    </edge>
    <edge id=":A5_26" function="internal">
        <lane id=":A5_26_0" index="0" speed="10.36" length="19.50" shape="408.64,3400.89 406.95,3400.65 402.20,3397.80 399.35,3393.05 398.40,3386.40"/>
    </edge>
    <edge id=":A5_27" function="internal">
        <lane id=":A5_27_0" index="0" speed="3.65" length="3.23" shape="412.40,3400.80 412.00,3400.00 412.40,3399.20 413.60,3398.40"/>
    </edge>
    <edge id=":A5_12" function="internal">
        <lane id=":A5_12_0" index="0" speed="6.51" length="9.03" shape="408.00,3386.40 408.35,3388.85 409.40,3390.60 411.15,3391.65 413.60,3392.00"/>