<routes>
<vType id="Bus" accel="0.6" decel="3.5" sigma="0.5" length="10.1" minGap="1.0" maxSpeed="16.67" carFollowModel="Wiedemann" guiShape="bus" width="2.45" latAlignment="left" laneChangeModel="SL2015" lcStrategic="0.5" lcCooperative="0.0"/>
<vType id="Auto" accel="0.7" decel="4.5" sigma="0.5" length="2.6" minGap="0.3" maxSpeed="16" carFollowModel="Wiedemann" guiShape="passenger/sedan" width="1.25" latAlignment="left" laneChangeModel="SL2015" lcStrategic="0.5" lcCooperative="0.0" />
<vType id="MotorCycle" accel="0.9" decel="3.5" sigma="0.5" length="1.85" minGap="0.15"  carFollowModel="Wiedemann" maxSpeed="17" guiShape="motorcycle" width="0.7" latAlignment="left" laneChangeModel="SL2015" lcStrategic="0.5" lcCooperative="0.0"/>
<vType id="Car" accel="0.8" decel="4.5" sigma="0.5" length="3.6" minGap="0.5" maxSpeed="40" carFollowModel="Wiedemann" guiShape="passenger" width="1.5" latAlignment="left" laneChangeModel="SL2015" lcStrategic="0.5" lcCooperative="0.0"/>
<vType id="emergency" accel="2.8" decel="5.5" sigma="0.5" length="3.6" minGap="0.5" maxSpeed="120.6" carFollowModel="Wiedemann" guiShape="emergency" width="1.5" latAlignment="left" laneChangeModel="SL2015" lcStrategic="0.5" lcCooperative="0.0" vClass="emergency" speedFactor="1.9" jmDriveAfterRedTime="300" jmDriveAfterRedSpeed="5.56">
<param key="has.bluelight.device" value="true"/>
<param key="has.fcd.device" value="true"/> 
</vType>
    <route id="route_0" edges="left4A4 A4B4 B4C4 C4D4 D4E4 E4F4 F4right4 " />
    <route id="route_1" edges="right4F4 F4E4 E4D4 D4C4 C4B4 B4A4 A4left4" />
        <route id="route_2" edges=" left3A3 A3B3 B3C3 C3D3 D3E3 E3F3" />
        <route id="route_3" edges="F3E3 E3D3 D3C3 C3B3 B3A3 A3left3" />
        <route id="route_4" edges="top1B5 B5B4 B4B3 B3B2 B2B1 B1B0" /> B4B3_1
        <route id="route_5" edges="B0B1 B1B2 B2B3 B3B4 B4B5 B5top1 " />
        <route id="route_6" edges="top2C5 C5C4 C4C3 C3C2 C2C1 C1C0 " />
        <route id="route_7" edges=" C0C1 C1C2 C2C3 C3C4 C4C5 C5top2" />
        <route id="route_8" edges="left4A4 A4B4 B4C4 C4D4 D4E4 E4F4 F4right4" />
        <route id="route_9" edges="right4F4 F4E4 E4D4 D4C4 C4B4 B4A4 A4left4" />
        <route id="route_10" edges="A4B4 B4B5" />
        <route id="route_11" edges="A4B4 B4B3" />
        <route id="route_12" edges="C4B4 B4B3 " />
        <route id="route_13" edges="C4B4 B4B5" />
        <route id="route_14" edges="B4C4 C4C3" />
        <route id="route_15" edges="B4C4 C4C5" />
        <route id="route_16" edges="C3C4 C4B4" />
        <route id="route_17" edges="C3C4 C4D4" />
        <route id="route_18" edges="D4C4 C4C3" />
        <route id="route_19" edges="D4C4 C4C5" />
        <route id="route_20" edges="A3B3 B3B4" />
        <route id="route_21" edges="A3B3 B3B2" />
        <route id="route_22" edges="C3B3 B3B4" />
        <route id="route_23" edges="B3C3 C3C4" />
        <route id="route_24" edges="B3C3 C3C2" />
        <route id="route_25" edges="D3C3 C3C4" />
        <route id="route_26" edges="D3C3 C3C2" />
        <route id="route_27" edges="B2A2" />
        <route id="route_28" edges="B2A2" />
        <route id="route_29" edges="B2A2" />
        <route id="route_30" edges="B2A2" />
        <route id="route_31" edges="B2A2" />

    <route id="route_32" edges="D4C4"/>
<vehicle id="emergency_0" type="emergency" route="route_7" depart="0" />
<vehicle id="Bus_0" type="Bus" route="route_7" depart="0" />
<vehicle id="Car_0" type="Car" route="route_7" depart="0" />
<vehicle id="MotorCycle_1" type="MotorCycle" route="route_1" depart="1" />
<vehicle id="MotorCycle_2" type="MotorCycle" route="route_7" depart="1" />
<vehicle id="MotorCycle_3" type="MotorCycle" route="route_8" depart="1" />
<vehicle id="Car_4" type="Car" route="route_12" depart="1" />
<vehicle id="Car_5" type="Car" route="route_2" depart="2" />
<vehicle id="MotorCycle_6" type="MotorCycle" route="route_10" depart="2" />
<vehicle id="MotorCycle_7" type="MotorCycle" route="route_11" depart="2" />
<vehicle id="Car_8" type="Car" route="route_12" depart="2" />
<vehicle id="MotorCycle_9" type="MotorCycle" route="route_13" depart="2" />
<vehicle id="MotorCycle_10" type="MotorCycle" route="route_14" depart="2" />
<vehicle id="MotorCycle_11" type="MotorCycle" route="route_17" depart="2" />
<vehicle id="Car_12" type="Car" route="route_23" depart="2" />
<vehicle id="MotorCycle_13" type="MotorCycle" route="route_24" depart="2" />
<vehicle id="MotorCycle_14" type="MotorCycle" route="route_26" depart="2" />
<vehicle id="Car_15" type="Car" route="route_6" depart="3" />
<vehicle id="Car_16" type="Car" route="route_8" depart="3" />
<vehicle id="MotorCycle_17" type="MotorCycle" route="route_9" depart="3" />
<vehicle id="MotorCycle_18" type="MotorCycle" route="route_14" depart="3" />
<vehicle id="MotorCycle_19" type="MotorCycle" route="route_15" depart="3" />
<vehicle id="MotorCycle_20" type="MotorCycle" route="route_24" depart="3" />
<vehicle id="MotorCycle_21" type="MotorCycle" route="route_27" depart="3" />
<vehicle id="MotorCycle_22" type="MotorCycle" route="route_30" depart="3" />
<vehicle id="MotorCycle_23" type="MotorCycle" route="route_1" depart="4" />
<vehicle id="MotorCycle_24" type="MotorCycle" route="route_3" depart="4" />
<vehicle id="MotorCycle_25" type="MotorCycle" route="route_4" depart="4" />
<vehicle id="MotorCycle_26" type="MotorCycle" route="route_7" depart="4" />
<vehicle id="MotorCycle_27" type="MotorCycle" route="route_11" depart="4" />
<vehicle id="MotorCycle_28" type="MotorCycle" route="route_13" depart="4" />
<vehicle id="MotorCycle_29" type="MotorCycle" route="route_14" depart="4" />
<vehicle id="MotorCycle_30" type="MotorCycle" route="route_27" depart="4" />
<vehicle id="Auto_31" type="Auto" route="route_28" depart="4" />
<vehicle id="Auto_32" type="Auto" route="route_2" depart="5" />
<vehicle id="MotorCycle_33" type="MotorCycle" route="route_4" depart="5" />
<vehicle id="Auto_34" type="Auto" route="route_5" depart="5" />
<vehicle id="MotorCycle_35" type="MotorCycle" route="route_6" depart="5" />
<vehicle id="MotorCycle_36" type="MotorCycle" route="route_9" depart="5" />
<vehicle id="Car_37" type="Car" route="route_11" depart="5" />
<vehicle id="MotorCycle_38" type="MotorCycle" route="route_21" depart="5" />
<vehicle id="MotorCycle_39" type="MotorCycle" route="route_1" depart="6" />
<vehicle id="MotorCycle_40" type="MotorCycle" route="route_6" depart="6" />
<vehicle id="MotorCycle_41" type="MotorCycle" route="route_7" depart="6" />
<vehicle id="MotorCycle_42" type="MotorCycle" route="route_8" depart="6" />
<vehicle id="MotorCycle_43" type="MotorCycle" route="route_11" depart="6" />
<vehicle id="MotorCycle_44" type="MotorCycle" route="route_13" depart="6" />
<vehicle id="MotorCycle_45" type="MotorCycle" route="route_14" depart="6" />
<vehicle id="MotorCycle_46" type="MotorCycle" route="route_20" depart="6" />
<vehicle id="MotorCycle_47" type="MotorCycle" route="route_29" depart="6" />
<vehicle id="MotorCycle_48" type="MotorCycle" route="route_18" depart="7" />
<vehicle id="Car_49" type="Car" route="route_24" depart="7" />
<vehicle id="MotorCycle_50" type="MotorCycle" route="route_25" depart="7" />
<vehicle id="MotorCycle_51" type="MotorCycle" route="route_30" depart="7" />
<vehicle id="MotorCycle_52" type="MotorCycle" route="route_1" depart="8" />
<vehicle id="Car_53" type="Car" route="route_2" depart="8" />
<vehicle id="Car_54" type="Car" route="route_12" depart="8" />
<vehicle id="MotorCycle_55" type="MotorCycle" route="route_15" depart="8" />
<vehicle id="MotorCycle_56" type="MotorCycle" route="route_25" depart="8" />
<vehicle id="Car_57" type="Car" route="route_27" depart="8" />
<vehicle id="MotorCycle_58" type="MotorCycle" route="route_7" depart="9" />
<vehicle id="MotorCycle_59" type="MotorCycle" route="route_14" depart="9" />
<vehicle id="Car_60" type="Car" route="route_23" depart="9" />
<vehicle id="MotorCycle_61" type="MotorCycle" route="route_24" depart="9" />
<vehicle id="Car_62" type="Car" route="route_9" depart="10" />
<vehicle id="MotorCycle_63" type="MotorCycle" route="route_13" depart="10" />
<vehicle id="Car_64" type="Car" route="route_15" depart="10" />
<vehicle id="MotorCycle_65" type="MotorCycle" route="route_23" depart="10" />
<vehicle id="MotorCycle_66" type="MotorCycle" route="route_26" depart="10" />
<vehicle id="MotorCycle_67" type="MotorCycle" route="route_3" depart="11" />
<vehicle id="MotorCycle_68" type="MotorCycle" route="route_4" depart="11" />
<vehicle id="MotorCycle_69" type="MotorCycle" route="route_8" depart="11" />
<vehicle id="MotorCycle_70" type="MotorCycle" route="route_13" depart="11" />
<vehicle id="MotorCycle_71" type="MotorCycle" route="route_20" depart="11" />
<vehicle id="MotorCycle_72" type="MotorCycle" route="route_21" depart="11" />
<vehicle id="MotorCycle_73" type="MotorCycle" route="route_28" depart="11" />
<vehicle id="MotorCycle_74" type="MotorCycle" route="route_3" depart="12" />
<vehicle id="Bus_75" type="Bus" route="route_4" depart="12" />
<vehicle id="MotorCycle_76" type="MotorCycle" route="route_5" depart="12" />
<vehicle id="MotorCycle_77" type="MotorCycle" route="route_8" depart="12" />
<vehicle id="MotorCycle_78" type="MotorCycle" route="route_13" depart="12" />
<vehicle id="MotorCycle_79" type="MotorCycle" route="route_15" depart="12" />
<vehicle id="MotorCycle_80" type="MotorCycle" route="route_16" depart="12" />
<vehicle id="Car_81" type="Car" route="route_24" depart="12" />
<vehicle id="MotorCycle_82" type="MotorCycle" route="route_28" depart="12" />
<vehicle id="Car_83" type="Car" route="route_1" depart="13" />
<vehicle id="MotorCycle_84" type="MotorCycle" route="route_2" depart="13" />
<vehicle id="MotorCycle_85" type="MotorCycle" route="route_10" depart="13" />
<vehicle id="MotorCycle_86" type="MotorCycle" route="route_23" depart="13" />
<vehicle id="MotorCycle_87" type="MotorCycle" route="route_25" depart="13" />
<vehicle id="MotorCycle_88" type="MotorCycle" route="route_28" depart="13" />
<vehicle id="MotorCycle_89" type="MotorCycle" route="route_30" depart="13" />
<vehicle id="Car_90" type="Car" route="route_4" depart="14" />
<vehicle id="Auto_91" type="Auto" route="route_6" depart="14" />
<vehicle id="MotorCycle_92" type="MotorCycle" route="route_8" depart="14" />
<vehicle id="Car_93" type="Car" route="route_12" depart="14" />
<vehicle id="MotorCycle_94" type="MotorCycle" route="route_28" depart="14" />
<vehicle id="MotorCycle_95" type="MotorCycle" route="route_4" depart="15" />
<vehicle id="MotorCycle_96" type="MotorCycle" route="route_7" depart="15" />
<vehicle id="MotorCycle_97" type="MotorCycle" route="route_10" depart="15" />
<vehicle id="MotorCycle_98" type="MotorCycle" route="route_11" depart="15" />
<vehicle id="MotorCycle_99" type="MotorCycle" route="route_12" depart="15" />
<vehicle id="MotorCycle_100" type="MotorCycle" route="route_13" depart="15" />
<vehicle id="MotorCycle_101" type="MotorCycle" route="route_24" depart="15" />
<vehicle id="MotorCycle_102" type="MotorCycle" route="route_29" depart="15" />
<vehicle id="MotorCycle_103" type="MotorCycle" route="route_1" depart="16" />
<vehicle id="MotorCycle_104" type="MotorCycle" route="route_3" depart="16" />
<vehicle id="MotorCycle_105" type="MotorCycle" route="route_16" depart="16" />
<vehicle id="MotorCycle_106" type="MotorCycle" route="route_19" depart="16" />
<vehicle id="MotorCycle_107" type="MotorCycle" route="route_25" depart="16" />
<vehicle id="MotorCycle_108" type="MotorCycle" route="route_29" depart="16" />
<vehicle id="MotorCycle_109" type="MotorCycle" route="route_6" depart="17" />
<vehicle id="MotorCycle_110" type="MotorCycle" route="route_11" depart="17" />
<vehicle id="MotorCycle_111" type="MotorCycle" route="route_13" depart="17" />
<vehicle id="Auto_112" type="Auto" route="route_22" depart="17" />
<vehicle id="Car_113" type="Car" route="route_24" depart="17" />
<vehicle id="MotorCycle_114" type="MotorCycle" route="route_25" depart="17" />
<vehicle id="MotorCycle_115" type="MotorCycle" route="route_2" depart="18" />
<vehicle id="Car_116" type="Car" route="route_7" depart="18" />
<vehicle id="MotorCycle_117" type="MotorCycle" route="route_12" depart="18" />
<vehicle id="Car_118" type="Car" route="route_13" depart="18" />
<vehicle id="MotorCycle_119" type="MotorCycle" route="route_15" depart="18" />
<vehicle id="MotorCycle_120" type="MotorCycle" route="route_18" depart="18" />
<vehicle id="MotorCycle_121" type="MotorCycle" route="route_20" depart="18" />
<vehicle id="MotorCycle_122" type="MotorCycle" route="route_22" depart="18" />
<vehicle id="MotorCycle_123" type="MotorCycle" route="route_24" depart="18" />
<vehicle id="MotorCycle_124" type="MotorCycle" route="route_28" depart="18" />
<vehicle id="MotorCycle_125" type="MotorCycle" route="route_29" depart="18" />
<vehicle id="MotorCycle_126" type="MotorCycle" route="route_7" depart="19" />
<vehicle id="MotorCycle_127" type="MotorCycle" route="route_15" depart="19" />
<vehicle id="MotorCycle_128" type="MotorCycle" route="route_18" depart="19" />
<vehicle id="MotorCycle_129" type="MotorCycle" route="route_21" depart="19" />
<vehicle id="MotorCycle_130" type="MotorCycle" route="route_24" depart="19" />
<vehicle id="Car_131" type="Car" route="route_3" depart="20" />
<vehicle id="MotorCycle_132" type="MotorCycle" route="route_5" depart="20" />
<vehicle id="MotorCycle_133" type="MotorCycle" route="route_12" depart="20" />
<vehicle id="MotorCycle_134" type="MotorCycle" route="route_16" depart="20" />
<vehicle id="MotorCycle_135" type="MotorCycle" route="route_22" depart="20" />
<vehicle id="MotorCycle_136" type="MotorCycle" route="route_23" depart="20" />
<vehicle id="MotorCycle_137" type="MotorCycle" route="route_25" depart="20" />
<vehicle id="MotorCycle_138" type="MotorCycle" route="route_27" depart="20" />
<vehicle id="MotorCycle_139" type="MotorCycle" route="route_28" depart="20" />
<vehicle id="MotorCycle_140" type="MotorCycle" route="route_1" depart="21" />
<vehicle id="MotorCycle_141" type="MotorCycle" route="route_11" depart="21" />
<vehicle id="Car_142" type="Car" route="route_14" depart="21" />
<vehicle id="Auto_143" type="Auto" route="route_22" depart="21" />
<vehicle id="MotorCycle_144" type="MotorCycle" route="route_26" depart="21" />
<vehicle id="MotorCycle_145" type="MotorCycle" route="route_10" depart="22" />
<vehicle id="MotorCycle_146" type="MotorCycle" route="route_15" depart="22" />
<vehicle id="MotorCycle_147" type="MotorCycle" route="route_19" depart="22" />
<vehicle id="MotorCycle_148" type="MotorCycle" route="route_20" depart="22" />
<vehicle id="MotorCycle_149" type="MotorCycle" route="route_30" depart="22" />
<vehicle id="MotorCycle_150" type="MotorCycle" route="route_2" depart="23" />
<vehicle id="MotorCycle_151" type="MotorCycle" route="route_5" depart="23" />
<vehicle id="MotorCycle_152" type="MotorCycle" route="route_7" depart="23" />
<vehicle id="MotorCycle_153" type="MotorCycle" route="route_8" depart="23" />
<vehicle id="MotorCycle_154" type="MotorCycle" route="route_17" depart="23" />
<vehicle id="Auto_155" type="Auto" route="route_22" depart="23" />
<vehicle id="Auto_156" type="Auto" route="route_25" depart="23" />
<vehicle id="MotorCycle_157" type="MotorCycle" route="route_5" depart="24" />
<vehicle id="MotorCycle_158" type="MotorCycle" route="route_6" depart="24" />
<vehicle id="MotorCycle_159" type="MotorCycle" route="route_10" depart="24" />
<vehicle id="Bus_160" type="Bus" route="route_17" depart="24" />
<vehicle id="MotorCycle_161" type="MotorCycle" route="route_20" depart="24" />
<vehicle id="MotorCycle_162" type="MotorCycle" route="route_25" depart="24" />
<vehicle id="MotorCycle_163" type="MotorCycle" route="route_26" depart="24" />
<vehicle id="MotorCycle_164" type="MotorCycle" route="route_1" depart="25" />
<vehicle id="MotorCycle_165" type="MotorCycle" route="route_3" depart="25" />
<vehicle id="MotorCycle_166" type="MotorCycle" route="route_9" depart="25" />
<vehicle id="MotorCycle_167" type="MotorCycle" route="route_20" depart="25" />
<vehicle id="MotorCycle_168" type="MotorCycle" route="route_28" depart="25" />
<vehicle id="Auto_169" type="Auto" route="route_1" depart="26" />
<vehicle id="MotorCycle_170" type="MotorCycle" route="route_4" depart="26" />
<vehicle id="MotorCycle_171" type="MotorCycle" route="route_6" depart="26" />
<vehicle id="Auto_172" type="Auto" route="route_8" depart="26" />
<vehicle id="MotorCycle_173" type="MotorCycle" route="route_15" depart="26" />
<vehicle id="Auto_174" type="Auto" route="route_16" depart="26" />
<vehicle id="MotorCycle_175" type="MotorCycle" route="route_17" depart="26" />
<vehicle id="MotorCycle_176" type="MotorCycle" route="route_3" depart="27" />
<vehicle id="MotorCycle_177" type="MotorCycle" route="route_4" depart="27" />
<vehicle id="Auto_178" type="Auto" route="route_7" depart="27" />
<vehicle id="Car_179" type="Car" route="route_8" depart="27" />
<vehicle id="MotorCycle_180" type="MotorCycle" route="route_15" depart="27" />
<vehicle id="Bus_181" type="Bus" route="route_17" depart="27" />
<vehicle id="MotorCycle_182" type="MotorCycle" route="route_19" depart="27" />
<vehicle id="MotorCycle_183" type="MotorCycle" route="route_23" depart="27" />
<vehicle id="MotorCycle_184" type="MotorCycle" route="route_25" depart="27" />
<vehicle id="Car_185" type="Car" route="route_26" depart="27" />
<vehicle id="MotorCycle_186" type="MotorCycle" route="route_1" depart="28" />
<vehicle id="MotorCycle_187" type="MotorCycle" route="route_4" depart="28" />
<vehicle id="MotorCycle_188" type="MotorCycle" route="route_8" depart="28" />
<vehicle id="Car_189" type="Car" route="route_9" depart="28" />
<vehicle id="MotorCycle_190" type="MotorCycle" route="route_10" depart="28" />
<vehicle id="MotorCycle_191" type="MotorCycle" route="route_13" depart="28" />
<vehicle id="MotorCycle_192" type="MotorCycle" route="route_20" depart="28" />
<vehicle id="MotorCycle_193" type="MotorCycle" route="route_22" depart="28" />
<vehicle id="Car_194" type="Car" route="route_24" depart="28" />
<vehicle id="MotorCycle_195" type="MotorCycle" route="route_27" depart="28" />
<vehicle id="MotorCycle_196" type="MotorCycle" route="route_28" depart="28" />
<vehicle id="Auto_197" type="Auto" route="route_5" depart="29" />
<vehicle id="MotorCycle_198" type="MotorCycle" route="route_7" depart="29" />
<vehicle id="MotorCycle_199" type="MotorCycle" route="route_12" depart="29" />
<vehicle id="MotorCycle_200" type="MotorCycle" route="route_15" depart="29" />
<vehicle id="Car_201" type="Car" route="route_18" depart="29" />
<vehicle id="Car_202" type="Car" route="route_23" depart="29" />
<vehicle id="MotorCycle_203" type="MotorCycle" route="route_27" depart="29" />
<vehicle id="MotorCycle_204" type="MotorCycle" route="route_29" depart="29" />
<vehicle id="MotorCycle_205" type="MotorCycle" route="route_30" depart="29" />
<vehicle id="MotorCycle_206" type="MotorCycle" route="route_2" depart="30" />
<vehicle id="MotorCycle_207" type="MotorCycle" route="route_5" depart="30" />
<vehicle id="MotorCycle_208" type="MotorCycle" route="route_20" depart="30" />
<vehicle id="MotorCycle_209" type="MotorCycle" route="route_23" depart="30" />
<vehicle id="Car_210" type="Car" route="route_24" depart="30" />
<vehicle id="Auto_211" type="Auto" route="route_29" depart="30" />
<vehicle id="MotorCycle_212" type="MotorCycle" route="route_1" depart="31" />
<vehicle id="MotorCycle_213" type="MotorCycle" route="route_7" depart="31" />
<vehicle id="MotorCycle_214" type="MotorCycle" route="route_14" depart="31" />
<vehicle id="MotorCycle_215" type="MotorCycle" route="route_15" depart="31" />
<vehicle id="MotorCycle_216" type="MotorCycle" route="route_23" depart="31" />
<vehicle id="Car_217" type="Car" route="route_4" depart="32" />
<vehicle id="MotorCycle_218" type="MotorCycle" route="route_5" depart="32" />
<vehicle id="Car_219" type="Car" route="route_11" depart="32" />
<vehicle id="MotorCycle_220" type="MotorCycle" route="route_16" depart="32" />
<vehicle id="MotorCycle_221" type="MotorCycle" route="route_21" depart="32" />
<vehicle id="Car_222" type="Car" route="route_23" depart="32" />
<vehicle id="Car_223" type="Car" route="route_24" depart="32" />
<vehicle id="MotorCycle_224" type="MotorCycle" route="route_30" depart="32" />
<vehicle id="MotorCycle_225" type="MotorCycle" route="route_3" depart="33" />
<vehicle id="Car_226" type="Car" route="route_4" depart="33" />
<vehicle id="MotorCycle_227" type="MotorCycle" route="route_5" depart="33" />
<vehicle id="MotorCycle_228" type="MotorCycle" route="route_9" depart="33" />
<vehicle id="MotorCycle_229" type="MotorCycle" route="route_17" depart="33" />
<vehicle id="MotorCycle_230" type="MotorCycle" route="route_22" depart="33" />
<vehicle id="MotorCycle_231" type="MotorCycle" route="route_25" depart="33" />
<vehicle id="MotorCycle_232" type="MotorCycle" route="route_26" depart="33" />
<vehicle id="Car_233" type="Car" route="route_29" depart="33" />
<vehicle id="MotorCycle_234" type="MotorCycle" route="route_2" depart="34" />
<vehicle id="Car_235" type="Car" route="route_18" depart="34" />
<vehicle id="Car_236" type="Car" route="route_21" depart="34" />
<vehicle id="MotorCycle_237" type="MotorCycle" route="route_30" depart="34" />
<vehicle id="MotorCycle_238" type="MotorCycle" route="route_12" depart="35" />
<vehicle id="MotorCycle_239" type="MotorCycle" route="route_4" depart="36" />
<vehicle id="MotorCycle_240" type="MotorCycle" route="route_12" depart="36" />
<vehicle id="MotorCycle_241" type="MotorCycle" route="route_13" depart="36" />
<vehicle id="MotorCycle_242" type="MotorCycle" route="route_15" depart="36" />
<vehicle id="MotorCycle_243" type="MotorCycle" route="route_23" depart="36" />
<vehicle id="MotorCycle_244" type="MotorCycle" route="route_25" depart="36" />
<vehicle id="MotorCycle_245" type="MotorCycle" route="route_11" depart="37" />
<vehicle id="MotorCycle_246" type="MotorCycle" route="route_15" depart="37" />
<vehicle id="MotorCycle_247" type="MotorCycle" route="route_27" depart="37" />
<vehicle id="MotorCycle_248" type="MotorCycle" route="route_8" depart="38" />
<vehicle id="MotorCycle_249" type="MotorCycle" route="route_10" depart="38" />
<vehicle id="MotorCycle_250" type="MotorCycle" route="route_18" depart="38" />
<vehicle id="MotorCycle_251" type="MotorCycle" route="route_28" depart="38" />
<vehicle id="MotorCycle_252" type="MotorCycle" route="route_4" depart="39" />
<vehicle id="MotorCycle_253" type="MotorCycle" route="route_21" depart="39" />
<vehicle id="MotorCycle_254" type="MotorCycle" route="route_27" depart="39" />
<vehicle id="MotorCycle_255" type="MotorCycle" route="route_8" depart="40" />
<vehicle id="Car_256" type="Car" route="route_9" depart="40" />
<vehicle id="MotorCycle_257" type="MotorCycle" route="route_11" depart="40" />
<vehicle id="Car_258" type="Car" route="route_14" depart="40" />
<vehicle id="MotorCycle_259" type="MotorCycle" route="route_17" depart="40" />
<vehicle id="MotorCycle_260" type="MotorCycle" route="route_18" depart="40" />
<vehicle id="MotorCycle_261" type="MotorCycle" route="route_20" depart="40" />
<vehicle id="MotorCycle_262" type="MotorCycle" route="route_22" depart="40" />
<vehicle id="MotorCycle_263" type="MotorCycle" route="route_26" depart="40" />
<vehicle id="MotorCycle_264" type="MotorCycle" route="route_27" depart="40" />
<vehicle id="Car_265" type="Car" route="route_29" depart="40" />
<vehicle id="MotorCycle_266" type="MotorCycle" route="route_30" depart="40" />
<vehicle id="MotorCycle_267" type="MotorCycle" route="route_2" depart="41" />
<vehicle id="MotorCycle_268" type="MotorCycle" route="route_12" depart="41" />
<vehicle id="MotorCycle_269" type="MotorCycle" route="route_13" depart="41" />
<vehicle id="MotorCycle_270" type="MotorCycle" route="route_14" depart="41" />
<vehicle id="Car_271" type="Car" route="route_15" depart="41" />
<vehicle id="MotorCycle_272" type="MotorCycle" route="route_16" depart="41" />
<vehicle id="MotorCycle_273" type="MotorCycle" route="route_17" depart="41" />
<vehicle id="MotorCycle_274" type="MotorCycle" route="route_18" depart="41" />
<vehicle id="MotorCycle_275" type="MotorCycle" route="route_21" depart="41" />
<vehicle id="MotorCycle_276" type="MotorCycle" route="route_22" depart="41" />
<vehicle id="MotorCycle_277" type="MotorCycle" route="route_23" depart="41" />
<vehicle id="Car_278" type="Car" route="route_27" depart="41" />
<vehicle id="MotorCycle_279" type="MotorCycle" route="route_28" depart="41" />
<vehicle id="Auto_280" type="Auto" route="route_2" depart="42" />
<vehicle id="MotorCycle_281" type="MotorCycle" route="route_3" depart="42" />
<vehicle id="MotorCycle_282" type="MotorCycle" route="route_5" depart="42" />
<vehicle id="MotorCycle_283" type="MotorCycle" route="route_11" depart="42" />
<vehicle id="Car_284" type="Car" route="route_19" depart="42" />
<vehicle id="MotorCycle_285" type="MotorCycle" route="route_23" depart="42" />
<vehicle id="Car_286" type="Car" route="route_24" depart="42" />
<vehicle id="MotorCycle_287" type="MotorCycle" route="route_25" depart="42" />
<vehicle id="Car_288" type="Car" route="route_26" depart="42" />
<vehicle id="MotorCycle_289" type="MotorCycle" route="route_27" depart="42" />
<vehicle id="MotorCycle_290" type="MotorCycle" route="route_30" depart="42" />
<vehicle id="MotorCycle_291" type="MotorCycle" route="route_1" depart="43" />
<vehicle id="MotorCycle_292" type="MotorCycle" route="route_2" depart="43" />
<vehicle id="MotorCycle_293" type="MotorCycle" route="route_6" depart="43" />
<vehicle id="MotorCycle_294" type="MotorCycle" route="route_12" depart="43" />
<vehicle id="MotorCycle_295" type="MotorCycle" route="route_14" depart="43" />
<vehicle id="MotorCycle_296" type="MotorCycle" route="route_19" depart="43" />
<vehicle id="MotorCycle_297" type="MotorCycle" route="route_20" depart="43" />
<vehicle id="MotorCycle_298" type="MotorCycle" route="route_21" depart="43" />
<vehicle id="MotorCycle_299" type="MotorCycle" route="route_22" depart="43" />
<vehicle id="MotorCycle_300" type="MotorCycle" route="route_25" depart="43" />
<vehicle id="MotorCycle_301" type="MotorCycle" route="route_26" depart="43" />
<vehicle id="MotorCycle_302" type="MotorCycle" route="route_27" depart="43" />
<vehicle id="Car_303" type="Car" route="route_4" depart="44" />
<vehicle id="MotorCycle_304" type="MotorCycle" route="route_6" depart="44" />
<vehicle id="MotorCycle_305" type="MotorCycle" route="route_9" depart="44" />
<vehicle id="Auto_306" type="Auto" route="route_15" depart="44" />
<vehicle id="MotorCycle_307" type="MotorCycle" route="route_18" depart="44" />
<vehicle id="Car_308" type="Car" route="route_19" depart="44" />
<vehicle id="MotorCycle_309" type="MotorCycle" route="route_20" depart="44" />
<vehicle id="Auto_310" type="Auto" route="route_22" depart="44" />
<vehicle id="MotorCycle_311" type="MotorCycle" route="route_23" depart="44" />
<vehicle id="Car_312" type="Car" route="route_26" depart="44" />
<vehicle id="MotorCycle_313" type="MotorCycle" route="route_1" depart="45" />
<vehicle id="MotorCycle_314" type="MotorCycle" route="route_5" depart="45" />
<vehicle id="MotorCycle_315" type="MotorCycle" route="route_9" depart="45" />
<vehicle id="MotorCycle_316" type="MotorCycle" route="route_11" depart="45" />
<vehicle id="MotorCycle_317" type="MotorCycle" route="route_14" depart="45" />
<vehicle id="MotorCycle_318" type="MotorCycle" route="route_24" depart="45" />
<vehicle id="MotorCycle_319" type="MotorCycle" route="route_26" depart="45" />
<vehicle id="MotorCycle_320" type="MotorCycle" route="route_28" depart="45" />
<vehicle id="MotorCycle_321" type="MotorCycle" route="route_13" depart="46" />
<vehicle id="Car_322" type="Car" route="route_15" depart="46" />
<vehicle id="Car_323" type="Car" route="route_17" depart="46" />
<vehicle id="MotorCycle_324" type="MotorCycle" route="route_18" depart="46" />
<vehicle id="MotorCycle_325" type="MotorCycle" route="route_19" depart="46" />
<vehicle id="Auto_326" type="Auto" route="route_26" depart="46" />
<vehicle id="Car_327" type="Car" route="route_30" depart="46" />
<vehicle id="MotorCycle_328" type="MotorCycle" route="route_5" depart="47" />
<vehicle id="MotorCycle_329" type="MotorCycle" route="route_8" depart="47" />
<vehicle id="MotorCycle_330" type="MotorCycle" route="route_9" depart="47" />
<vehicle id="MotorCycle_331" type="MotorCycle" route="route_16" depart="47" />
<vehicle id="MotorCycle_332" type="MotorCycle" route="route_17" depart="47" />
<vehicle id="MotorCycle_333" type="MotorCycle" route="route_18" depart="47" />
<vehicle id="Car_334" type="Car" route="route_23" depart="47" />
<vehicle id="MotorCycle_335" type="MotorCycle" route="route_27" depart="47" />
<vehicle id="Auto_336" type="Auto" route="route_29" depart="47" />
<vehicle id="MotorCycle_337" type="MotorCycle" route="route_30" depart="47" />
<vehicle id="MotorCycle_338" type="MotorCycle" route="route_1" depart="48" />
<vehicle id="MotorCycle_339" type="MotorCycle" route="route_2" depart="48" />
<vehicle id="Car_340" type="Car" route="route_5" depart="48" />
<vehicle id="Bus_341" type="Bus" route="route_13" depart="48" />
<vehicle id="MotorCycle_342" type="MotorCycle" route="route_14" depart="48" />
<vehicle id="MotorCycle_343" type="MotorCycle" route="route_25" depart="48" />
<vehicle id="MotorCycle_344" type="MotorCycle" route="route_26" depart="48" />
<vehicle id="MotorCycle_345" type="MotorCycle" route="route_27" depart="48" />
<vehicle id="MotorCycle_346" type="MotorCycle" route="route_28" depart="48" />
<vehicle id="Car_347" type="Car" route="route_29" depart="48" />
<vehicle id="Bus_348" type="Bus" route="route_3" depart="49" />
<vehicle id="MotorCycle_349" type="MotorCycle" route="route_8" depart="49" />
<vehicle id="MotorCycle_350" type="MotorCycle" route="route_9" depart="49" />
<vehicle id="Car_351" type="Car" route="route_10" depart="49" />
<vehicle id="Car_352" type="Car" route="route_12" depart="49" />
<vehicle id="MotorCycle_353" type="MotorCycle" route="route_13" depart="49" />