<?xml version="1.0" encoding="UTF-8"?>

<!-- generated on Fri Feb  7 11:43:35 2020 by Eclipse SUMO Version 1.2.0
-->

<configuration xmlns:xsi="http://www.w3.org/2001/XMLSchema-instance" xsi:noNamespaceSchemaLocation="http://sumo.dlr.de/xsd/sumoConfiguration.xsd">

    <input>
        <net-file value="gridExp.net.xml"/>
        <route-files value="gridExp.rou.xml"/>
        <additional-files value="gridExp.poly.xml, gridExp.add.xml, gridExp.tls.xml"/>
    </input>



</configuration>
