<?xml version="1.0" encoding="UTF-8"?>

<configuration xmlns:xsi="http://www.w3.org/2001/XMLSchema-instance" xsi:noNamespaceSchemaLocation="http://sumo.dlr.de/xsd/sumoConfiguration.xsd">

    <input>
        <net-file value="vs1.net.xml"/>
        <route-files value="vs2.rou.xml"/>
        <additional-files value="vs1.poly.xml,vs1.add.xml,vs1.tls.xml"/>
    </input>


    
</configuration>
