<routes>
<vType id="Bus" accel="0.6" decel="3.5" sigma="0.5" length="10.1" minGap="1.0" maxSpeed="16.67" carFollowModel="Wiedemann" guiShape="bus" width="2.45" latAlignment="left" laneChangeModel="SL2015" lcStrategic="0.5" lcCooperative="0.0"/>
<vType id="Auto" accel="0.7" decel="4.5" sigma="0.5" length="2.6" minGap="0.3" maxSpeed="16" carFollowModel="Wiedemann" guiShape="passenger/sedan" width="1.25" latAlignment="left" laneChangeModel="SL2015" lcStrategic="0.5" lcCooperative="0.0" />
<vType id="MotorCycle" accel="0.9" decel="3.5" sigma="0.5" length="1.85" minGap="0.15"  carFollowModel="Wiedemann" maxSpeed="17" guiShape="motorcycle" width="0.7" latAlignment="left" laneChangeModel="SL2015" lcStrategic="0.5" lcCooperative="0.0"/>
<vType id="Car" accel="0.8" decel="4.5" sigma="0.5" length="3.6" minGap="0.5" maxSpeed="40" carFollowModel="Wiedemann" guiShape="passenger" width="1.5" latAlignment="left" laneChangeModel="SL2015" lcStrategic="0.5" lcCooperative="0.0"/>
<vType id="emergency" accel="2.8" decel="5.5" sigma="0.5" length="3.6" minGap="0.5" maxSpeed="120.6" carFollowModel="Wiedemann" guiShape="emergency" width="1.5" latAlignment="left" laneChangeModel="SL2015" lcStrategic="0.5" lcCooperative="0.0" vClass="emergency" speedFactor="1.9" jmDriveAfterRedTime="300" jmDriveAfterRedSpeed="5.56">
<param key="has.bluelight.device" value="true"/>
<param key="has.fcd.device" value="true"/> 
</vType>
    <route id="route_0" edges="left4A4 A4B4 B4C4 C4D4 D4E4 E4F4 F4right4 " />
    <route id="route_1" edges="right4F4 F4E4 E4D4 D4C4 C4B4 B4A4 A4left4" />
        <route id="route_2" edges=" left3A3 A3B3 B3C3 C3D3 D3E3 E3F3" />
        <route id="route_3" edges="F3E3 E3D3 D3C3 C3B3 B3A3 A3left3" />
        <route id="route_4" edges="left4A4 A4B4 B4C4 C4D4 D4E4 E4F4 F4right4 " /> 
        <route id="route_5" edges="right4F4 F4E4 E4D4 D4C4 C4B4 B4A4 A4left4 " />
        <route id="route_6" edges="left4A4 A4B4 B4C4 C4D4 D4E4 E4F4 F4right4" />
        <route id="route_7" edges=" right4F4 F4E4 E4D4 D4C4 C4B4 B4A4 A4left4" />
        <route id="route_8" edges="left4A4 A4B4 B4C4 C4D4 D4E4 E4F4 F4right4" />
        <route id="route_9" edges="right4F4 F4E4 E4D4 D4C4 C4B4 B4A4 A4left4" />
        <route id="route_10" edges="D4C4" />
        <route id="route_11" edges="D4C4" />
        <route id="route_12" edges="D4C4" />
        <route id="route_13" edges="D4C4" />
        <route id="route_14" edges="D4C4" />
        <route id="route_15" edges="D4C4" />
        <route id="route_16" edges="D4C4" />
        <route id="route_17" edges="D4C4" />
        <route id="route_18" edges="D4C4" />
        <route id="route_19" edges="D4C4" />
        <route id="route_20" edges="D4C4" />
        <route id="route_21" edges="D4C4" />
        <route id="route_22" edges="D4C4" />
        <route id="route_23" edges="D4C4" />

    <route id="route_24" edges="D4C4"/>
<vehicle id="emergency_0" type="emergency" route="route_7" depart="0" />
<vehicle id="Bus_0" type="Bus" route="route_7" depart="0" />
<vehicle id="Car_0" type="Car" route="route_8" depart="0" />
<vehicle id="Car_1" type="Car" route="route_9" depart="1" />
<vehicle id="MotorCycle_2" type="MotorCycle" route="route_5" depart="4" />
<vehicle id="MotorCycle_3" type="MotorCycle" route="route_1" depart="5" />
<vehicle id="MotorCycle_4" type="MotorCycle" route="route_1" depart="6" />
<vehicle id="MotorCycle_5" type="MotorCycle" route="route_8" depart="8" />
<vehicle id="MotorCycle_6" type="MotorCycle" route="route_1" depart="9" />
<vehicle id="Car_7" type="Car" route="route_10" depart="10" />
<vehicle id="MotorCycle_8" type="MotorCycle" route="route_1" depart="11" />
<vehicle id="MotorCycle_9" type="MotorCycle" route="route_1" depart="15" />
<vehicle id="MotorCycle_10" type="MotorCycle" route="route_8" depart="15" />
<vehicle id="MotorCycle_11" type="MotorCycle" route="route_6" depart="16" />
<vehicle id="Auto_12" type="Auto" route="route_9" depart="17" />
<vehicle id="MotorCycle_13" type="MotorCycle" route="route_1" depart="18" />
<vehicle id="MotorCycle_14" type="MotorCycle" route="route_2" depart="18" />
<vehicle id="MotorCycle_15" type="MotorCycle" route="route_2" depart="20" />
<vehicle id="MotorCycle_16" type="MotorCycle" route="route_4" depart="23" />
<vehicle id="MotorCycle_17" type="MotorCycle" route="route_8" depart="23" />
<vehicle id="MotorCycle_18" type="MotorCycle" route="route_2" depart="25" />
<vehicle id="Car_19" type="Car" route="route_6" depart="27" />
<vehicle id="MotorCycle_20" type="MotorCycle" route="route_5" depart="29" />
<vehicle id="MotorCycle_21" type="MotorCycle" route="route_7" depart="29" />
<vehicle id="MotorCycle_22" type="MotorCycle" route="route_1" depart="31" />
<vehicle id="MotorCycle_23" type="MotorCycle" route="route_3" depart="31" />
<vehicle id="Auto_24" type="Auto" route="route_8" depart="32" />
<vehicle id="MotorCycle_25" type="MotorCycle" route="route_10" depart="32" />
<vehicle id="MotorCycle_26" type="MotorCycle" route="route_1" depart="33" />
<vehicle id="MotorCycle_27" type="MotorCycle" route="route_2" depart="33" />
<vehicle id="MotorCycle_28" type="MotorCycle" route="route_10" depart="34" />
<vehicle id="MotorCycle_29" type="MotorCycle" route="route_1" depart="35" />
<vehicle id="MotorCycle_30" type="MotorCycle" route="route_1" depart="38" />
<vehicle id="MotorCycle_31" type="MotorCycle" route="route_5" depart="39" />
<vehicle id="MotorCycle_32" type="MotorCycle" route="route_2" depart="40" />
<vehicle id="MotorCycle_33" type="MotorCycle" route="route_3" depart="41" />
<vehicle id="MotorCycle_34" type="MotorCycle" route="route_5" depart="41" />
<vehicle id="MotorCycle_35" type="MotorCycle" route="route_7" depart="41" />
<vehicle id="MotorCycle_36" type="MotorCycle" route="route_2" depart="43" />
<vehicle id="MotorCycle_37" type="MotorCycle" route="route_9" depart="43" />
<vehicle id="MotorCycle_38" type="MotorCycle" route="route_10" depart="43" />
<vehicle id="Car_39" type="Car" route="route_3" depart="44" />
<vehicle id="MotorCycle_40" type="MotorCycle" route="route_5" depart="44" />
<vehicle id="Car_41" type="Car" route="route_9" depart="46" />
<vehicle id="Car_42" type="Car" route="route_2" depart="47" />
<vehicle id="MotorCycle_43" type="MotorCycle" route="route_7" depart="47" />
<vehicle id="Auto_44" type="Auto" route="route_6" depart="53" />
<vehicle id="MotorCycle_45" type="MotorCycle" route="route_5" depart="56" />
<vehicle id="MotorCycle_46" type="MotorCycle" route="route_1" depart="57" />
<vehicle id="MotorCycle_47" type="MotorCycle" route="route_5" depart="57" />
<vehicle id="MotorCycle_48" type="MotorCycle" route="route_2" depart="58" />
<vehicle id="MotorCycle_49" type="MotorCycle" route="route_9" depart="58" />
<vehicle id="MotorCycle_50" type="MotorCycle" route="route_1" depart="60" />
<vehicle id="MotorCycle_51" type="MotorCycle" route="route_1" depart="62" />
<vehicle id="Car_52" type="Car" route="route_5" depart="62" />
<vehicle id="MotorCycle_53" type="MotorCycle" route="route_9" depart="62" />
<vehicle id="Car_54" type="Car" route="route_1" depart="68" />
<vehicle id="MotorCycle_55" type="MotorCycle" route="route_5" depart="72" />
<vehicle id="MotorCycle_56" type="MotorCycle" route="route_2" depart="74" />
<vehicle id="MotorCycle_57" type="MotorCycle" route="route_7" depart="74" />
<vehicle id="MotorCycle_58" type="MotorCycle" route="route_1" depart="77" />
<vehicle id="MotorCycle_59" type="MotorCycle" route="route_1" depart="78" />
<vehicle id="MotorCycle_60" type="MotorCycle" route="route_3" depart="78" />
<vehicle id="Car_61" type="Car" route="route_9" depart="78" />
<vehicle id="MotorCycle_62" type="MotorCycle" route="route_10" depart="78" />
<vehicle id="MotorCycle_63" type="MotorCycle" route="route_1" depart="79" />
<vehicle id="MotorCycle_64" type="MotorCycle" route="route_2" depart="79" />
<vehicle id="Car_65" type="Car" route="route_1" depart="80" />
<vehicle id="MotorCycle_66" type="MotorCycle" route="route_3" depart="80" />
<vehicle id="MotorCycle_67" type="MotorCycle" route="route_1" depart="81" />
<vehicle id="Car_68" type="Car" route="route_1" depart="82" />
<vehicle id="Bus_69" type="Bus" route="route_2" depart="83" />
<vehicle id="MotorCycle_70" type="MotorCycle" route="route_4" depart="83" />
<vehicle id="MotorCycle_71" type="MotorCycle" route="route_7" depart="84" />
<vehicle id="MotorCycle_72" type="MotorCycle" route="route_10" depart="84" />
<vehicle id="Car_73" type="Car" route="route_2" depart="86" />
<vehicle id="MotorCycle_74" type="MotorCycle" route="route_9" depart="86" />
<vehicle id="Car_75" type="Car" route="route_4" depart="87" />
<vehicle id="MotorCycle_76" type="MotorCycle" route="route_2" depart="89" />
<vehicle id="MotorCycle_77" type="MotorCycle" route="route_4" depart="91" />
<vehicle id="MotorCycle_78" type="MotorCycle" route="route_7" depart="93" />
<vehicle id="MotorCycle_79" type="MotorCycle" route="route_2" depart="96" />
<vehicle id="Auto_80" type="Auto" route="route_4" depart="96" />
<vehicle id="MotorCycle_81" type="MotorCycle" route="route_5" depart="96" />
<vehicle id="MotorCycle_82" type="MotorCycle" route="route_2" depart="97" />
<vehicle id="Car_83" type="Car" route="route_1" depart="98" />
<vehicle id="MotorCycle_84" type="MotorCycle" route="route_4" depart="99" />
<vehicle id="MotorCycle_85" type="MotorCycle" route="route_8" depart="99" />
<vehicle id="MotorCycle_86" type="MotorCycle" route="route_9" depart="100" />
<vehicle id="MotorCycle_87" type="MotorCycle" route="route_3" depart="101" />
<vehicle id="MotorCycle_88" type="MotorCycle" route="route_5" depart="103" />
<vehicle id="MotorCycle_89" type="MotorCycle" route="route_3" depart="111" />
<vehicle id="MotorCycle_90" type="MotorCycle" route="route_10" depart="115" />
<vehicle id="MotorCycle_91" type="MotorCycle" route="route_4" depart="120" />
<vehicle id="MotorCycle_92" type="MotorCycle" route="route_5" depart="120" />
<vehicle id="Car_93" type="Car" route="route_1" depart="124" />
<vehicle id="MotorCycle_94" type="MotorCycle" route="route_3" depart="124" />
<vehicle id="MotorCycle_95" type="MotorCycle" route="route_9" depart="124" />
<vehicle id="Car_96" type="Car" route="route_4" depart="125" />
<vehicle id="MotorCycle_97" type="MotorCycle" route="route_5" depart="130" />
<vehicle id="MotorCycle_98" type="MotorCycle" route="route_8" depart="131" />
<vehicle id="MotorCycle_99" type="MotorCycle" route="route_2" depart="132" />
<vehicle id="Car_100" type="Car" route="route_7" depart="132" />
<vehicle id="Car_101" type="Car" route="route_1" depart="133" />
<vehicle id="MotorCycle_102" type="MotorCycle" route="route_2" depart="138" />
<vehicle id="MotorCycle_103" type="MotorCycle" route="route_9" depart="138" />
<vehicle id="MotorCycle_104" type="MotorCycle" route="route_2" depart="145" />
<vehicle id="Car_105" type="Car" route="route_8" depart="148" />
<vehicle id="Car_106" type="Car" route="route_3" depart="149" />
<vehicle id="MotorCycle_107" type="MotorCycle" route="route_7" depart="151" />
<vehicle id="MotorCycle_108" type="MotorCycle" route="route_5" depart="155" />
<vehicle id="Car_109" type="Car" route="route_3" depart="156" />
<vehicle id="MotorCycle_110" type="MotorCycle" route="route_5" depart="161" />
<vehicle id="MotorCycle_111" type="MotorCycle" route="route_10" depart="165" />
<vehicle id="MotorCycle_112" type="MotorCycle" route="route_3" depart="168" />
<vehicle id="Car_113" type="Car" route="route_4" depart="175" />
<vehicle id="MotorCycle_114" type="MotorCycle" route="route_5" depart="175" />
<vehicle id="MotorCycle_115" type="MotorCycle" route="route_8" depart="176" />
<vehicle id="Car_116" type="Car" route="route_2" depart="178" />
<vehicle id="Auto_117" type="Auto" route="route_10" depart="178" />
<vehicle id="MotorCycle_118" type="MotorCycle" route="route_5" depart="180" />
<vehicle id="Auto_119" type="Auto" route="route_1" depart="181" />
<vehicle id="MotorCycle_120" type="MotorCycle" route="route_3" depart="184" />
<vehicle id="MotorCycle_121" type="MotorCycle" route="route_2" depart="186" />
<vehicle id="Auto_122" type="Auto" route="route_4" depart="187" />
<vehicle id="Car_123" type="Car" route="route_7" depart="189" />
<vehicle id="MotorCycle_124" type="MotorCycle" route="route_6" depart="195" />
<vehicle id="MotorCycle_125" type="MotorCycle" route="route_8" depart="202" />
<vehicle id="MotorCycle_126" type="MotorCycle" route="route_8" depart="203" />
<vehicle id="MotorCycle_127" type="MotorCycle" route="route_2" depart="208" />
<vehicle id="MotorCycle_128" type="MotorCycle" route="route_1" depart="213" />
<vehicle id="MotorCycle_129" type="MotorCycle" route="route_2" depart="221" />
<vehicle id="MotorCycle_130" type="MotorCycle" route="route_6" depart="221" />
<vehicle id="MotorCycle_131" type="MotorCycle" route="route_24" depart="227" />
<vehicle id="MotorCycle_132" type="MotorCycle" route="route_2" depart="229" />
<vehicle id="MotorCycle_133" type="MotorCycle" route="route_1" depart="230" />
<vehicle id="MotorCycle_134" type="MotorCycle" route="route_9" depart="231" />
<vehicle id="Auto_135" type="Auto" route="route_8" depart="233" />
<vehicle id="MotorCycle_136" type="MotorCycle" route="route_2" depart="239" />
<vehicle id="MotorCycle_137" type="MotorCycle" route="route_4" depart="240" />
<vehicle id="Car_138" type="Car" route="route_4" depart="243" />
<vehicle id="Car_139" type="Car" route="route_9" depart="244" />
<vehicle id="MotorCycle_140" type="MotorCycle" route="route_1" depart="245" />
<vehicle id="MotorCycle_141" type="MotorCycle" route="route_5" depart="249" />
<vehicle id="MotorCycle_142" type="MotorCycle" route="route_2" depart="253" />
<vehicle id="MotorCycle_143" type="MotorCycle" route="route_8" depart="253" />
<vehicle id="MotorCycle_144" type="MotorCycle" route="route_3" depart="256" />
<vehicle id="MotorCycle_145" type="MotorCycle" route="route_2" depart="260" />
<vehicle id="MotorCycle_146" type="MotorCycle" route="route_4" depart="264" />
<vehicle id="MotorCycle_147" type="MotorCycle" route="route_4" depart="265" />
<vehicle id="MotorCycle_148" type="MotorCycle" route="route_4" depart="267" />
<vehicle id="MotorCycle_149" type="MotorCycle" route="route_7" depart="267" />
<vehicle id="MotorCycle_150" type="MotorCycle" route="route_3" depart="271" />
<vehicle id="MotorCycle_151" type="MotorCycle" route="route_2" depart="275" />
<vehicle id="MotorCycle_152" type="MotorCycle" route="route_4" depart="276" />
<vehicle id="MotorCycle_153" type="MotorCycle" route="route_4" depart="284" />
<vehicle id="MotorCycle_154" type="MotorCycle" route="route_2" depart="291" />
<vehicle id="MotorCycle_155" type="MotorCycle" route="route_8" depart="291" />
<vehicle id="MotorCycle_156" type="MotorCycle" route="route_7" depart="292" />
<vehicle id="MotorCycle_157" type="MotorCycle" route="route_8" depart="296" />
<vehicle id="MotorCycle_158" type="MotorCycle" route="route_7" depart="299" />
<vehicle id="MotorCycle_159" type="MotorCycle" route="route_5" depart="300" />
<vehicle id="MotorCycle_160" type="MotorCycle" route="route_10" depart="300" />
<vehicle id="MotorCycle_161" type="MotorCycle" route="route_3" depart="305" />
<vehicle id="MotorCycle_162" type="MotorCycle" route="route_2" depart="306" />
<vehicle id="MotorCycle_163" type="MotorCycle" route="route_5" depart="307" />
<vehicle id="Car_164" type="Car" route="route_4" depart="310" />
<vehicle id="MotorCycle_165" type="MotorCycle" route="route_1" depart="317" />
<vehicle id="Car_166" type="Car" route="route_1" depart="318" />
<vehicle id="MotorCycle_167" type="MotorCycle" route="route_7" depart="318" />
<vehicle id="MotorCycle_168" type="MotorCycle" route="route_9" depart="319" />
<vehicle id="MotorCycle_169" type="MotorCycle" route="route_7" depart="321" />
<vehicle id="Car_170" type="Car" route="route_1" depart="325" />
<vehicle id="MotorCycle_171" type="MotorCycle" route="route_6" depart="327" />
<vehicle id="MotorCycle_172" type="MotorCycle" route="route_7" depart="334" />
<vehicle id="Car_173" type="Car" route="route_1" depart="338" />
<vehicle id="MotorCycle_174" type="MotorCycle" route="route_9" depart="340" />
<vehicle id="MotorCycle_175" type="MotorCycle" route="route_1" depart="341" />
<vehicle id="MotorCycle_176" type="MotorCycle" route="route_2" depart="342" />
<vehicle id="MotorCycle_177" type="MotorCycle" route="route_6" depart="347" />
<vehicle id="MotorCycle_178" type="MotorCycle" route="route_1" depart="351" />
<vehicle id="MotorCycle_179" type="MotorCycle" route="route_7" depart="352" />
<vehicle id="MotorCycle_180" type="MotorCycle" route="route_2" depart="353" />
<vehicle id="MotorCycle_181" type="MotorCycle" route="route_2" depart="355" />
<vehicle id="MotorCycle_182" type="MotorCycle" route="route_9" depart="361" />
<vehicle id="MotorCycle_183" type="MotorCycle" route="route_1" depart="366" />
<vehicle id="MotorCycle_184" type="MotorCycle" route="route_5" depart="374" />
<vehicle id="MotorCycle_185" type="MotorCycle" route="route_2" depart="375" />
<vehicle id="MotorCycle_186" type="MotorCycle" route="route_10" depart="375" />
<vehicle id="Car_187" type="Car" route="route_3" depart="382" />
<vehicle id="MotorCycle_188" type="MotorCycle" route="route_8" depart="383" />
<vehicle id="MotorCycle_189" type="MotorCycle" route="route_6" depart="388" />
<vehicle id="MotorCycle_190" type="MotorCycle" route="route_10" depart="393" />
<vehicle id="MotorCycle_191" type="MotorCycle" route="route_3" depart="400" />
<vehicle id="Auto_192" type="Auto" route="route_4" depart="402" />
<vehicle id="Bus_193" type="Bus" route="route_6" depart="402" />
<vehicle id="MotorCycle_194" type="MotorCycle" route="route_6" depart="407" />
<vehicle id="MotorCycle_195" type="MotorCycle" route="route_6" depart="416" />
<vehicle id="Auto_196" type="Auto" route="route_2" depart="419" />
<vehicle id="MotorCycle_197" type="MotorCycle" route="route_2" depart="427" />
<vehicle id="MotorCycle_198" type="MotorCycle" route="route_8" depart="432" />
<vehicle id="MotorCycle_199" type="MotorCycle" route="route_3" depart="434" />
<vehicle id="Car_200" type="Car" route="route_9" depart="435" />
<vehicle id="MotorCycle_201" type="MotorCycle" route="route_10" depart="444" />
<vehicle id="Car_202" type="Car" route="route_1" depart="448" />
<vehicle id="MotorCycle_203" type="MotorCycle" route="route_3" depart="448" />
<vehicle id="Car_204" type="Car" route="route_1" depart="450" />
<vehicle id="MotorCycle_205" type="MotorCycle" route="route_6" depart="450" />
<vehicle id="MotorCycle_206" type="MotorCycle" route="route_9" depart="450" />
<vehicle id="MotorCycle_207" type="MotorCycle" route="route_1" depart="451" />
<vehicle id="MotorCycle_208" type="MotorCycle" route="route_2" depart="451" />
<vehicle id="MotorCycle_209" type="MotorCycle" route="route_6" depart="451" />
<vehicle id="Car_210" type="Car" route="route_1" depart="452" />
<vehicle id="MotorCycle_211" type="MotorCycle" route="route_2" depart="452" />
<vehicle id="MotorCycle_212" type="MotorCycle" route="route_5" depart="452" />
<vehicle id="Car_213" type="Car" route="route_9" depart="452" />
<vehicle id="Auto_214" type="Auto" route="route_1" depart="453" />
<vehicle id="MotorCycle_215" type="MotorCycle" route="route_7" depart="453" />
<vehicle id="MotorCycle_216" type="MotorCycle" route="route_1" depart="454" />
<vehicle id="MotorCycle_217" type="MotorCycle" route="route_2" depart="454" />
<vehicle id="MotorCycle_218" type="MotorCycle" route="route_1" depart="455" />
<vehicle id="MotorCycle_219" type="MotorCycle" route="route_2" depart="455" />
<vehicle id="Auto_220" type="Auto" route="route_1" depart="456" />
<vehicle id="MotorCycle_221" type="MotorCycle" route="route_1" depart="457" />
<vehicle id="MotorCycle_222" type="MotorCycle" route="route_7" depart="457" />
<vehicle id="MotorCycle_223" type="MotorCycle" route="route_1" depart="458" />
<vehicle id="MotorCycle_224" type="MotorCycle" route="route_2" depart="458" />
<vehicle id="Auto_225" type="Auto" route="route_3" depart="458" />
<vehicle id="Car_226" type="Car" route="route_1" depart="459" />
<vehicle id="MotorCycle_227" type="MotorCycle" route="route_2" depart="459" />
<vehicle id="Car_228" type="Car" route="route_10" depart="459" />
<vehicle id="MotorCycle_229" type="MotorCycle" route="route_1" depart="460" />
<vehicle id="MotorCycle_230" type="MotorCycle" route="route_2" depart="460" />
<vehicle id="MotorCycle_231" type="MotorCycle" route="route_1" depart="461" />
<vehicle id="MotorCycle_232" type="MotorCycle" route="route_2" depart="461" />
<vehicle id="MotorCycle_233" type="MotorCycle" route="route_5" depart="461" />
<vehicle id="Auto_234" type="Auto" route="route_1" depart="462" />
<vehicle id="MotorCycle_235" type="MotorCycle" route="route_5" depart="462" />
<vehicle id="MotorCycle_236" type="MotorCycle" route="route_1" depart="463" />
<vehicle id="MotorCycle_237" type="MotorCycle" route="route_2" depart="463" />
<vehicle id="MotorCycle_238" type="MotorCycle" route="route_3" depart="463" />
<vehicle id="Car_239" type="Car" route="route_1" depart="464" />
<vehicle id="MotorCycle_240" type="MotorCycle" route="route_2" depart="464" />
<vehicle id="MotorCycle_241" type="MotorCycle" route="route_1" depart="465" />
<vehicle id="MotorCycle_242" type="MotorCycle" route="route_2" depart="465" />
<vehicle id="MotorCycle_243" type="MotorCycle" route="route_1" depart="466" />
<vehicle id="Car_244" type="Car" route="route_2" depart="466" />
<vehicle id="Car_245" type="Car" route="route_2" depart="467" />
<vehicle id="MotorCycle_246" type="MotorCycle" route="route_4" depart="467" />
<vehicle id="Car_247" type="Car" route="route_2" depart="468" />
<vehicle id="MotorCycle_248" type="MotorCycle" route="route_9" depart="468" />
<vehicle id="Car_249" type="Car" route="route_1" depart="469" />
<vehicle id="MotorCycle_250" type="MotorCycle" route="route_2" depart="469" />
<vehicle id="MotorCycle_251" type="MotorCycle" route="route_7" depart="469" />
<vehicle id="MotorCycle_252" type="MotorCycle" route="route_10" depart="469" />
<vehicle id="MotorCycle_253" type="MotorCycle" route="route_1" depart="470" />
<vehicle id="MotorCycle_254" type="MotorCycle" route="route_2" depart="470" />
<vehicle id="Car_255" type="Car" route="route_6" depart="470" />
<vehicle id="MotorCycle_256" type="MotorCycle" route="route_10" depart="470" />
<vehicle id="MotorCycle_257" type="MotorCycle" route="route_1" depart="471" />
<vehicle id="MotorCycle_258" type="MotorCycle" route="route_2" depart="471" />
<vehicle id="MotorCycle_259" type="MotorCycle" route="route_7" depart="471" />
<vehicle id="MotorCycle_260" type="MotorCycle" route="route_8" depart="471" />
<vehicle id="Car_261" type="Car" route="route_1" depart="472" />
<vehicle id="MotorCycle_262" type="MotorCycle" route="route_5" depart="472" />
<vehicle id="MotorCycle_263" type="MotorCycle" route="route_2" depart="473" />
<vehicle id="MotorCycle_264" type="MotorCycle" route="route_5" depart="473" />
<vehicle id="MotorCycle_265" type="MotorCycle" route="route_8" depart="473" />
<vehicle id="MotorCycle_266" type="MotorCycle" route="route_2" depart="474" />
<vehicle id="MotorCycle_267" type="MotorCycle" route="route_8" depart="474" />
<vehicle id="Car_268" type="Car" route="route_1" depart="475" />
<vehicle id="Car_269" type="Car" route="route_2" depart="475" />
<vehicle id="MotorCycle_270" type="MotorCycle" route="route_7" depart="475" />
<vehicle id="Car_271" type="Car" route="route_2" depart="476" />
<vehicle id="MotorCycle_272" type="MotorCycle" route="route_9" depart="476" />
<vehicle id="Car_273" type="Car" route="route_1" depart="477" />
<vehicle id="Auto_274" type="Auto" route="route_2" depart="477" />
<vehicle id="MotorCycle_275" type="MotorCycle" route="route_9" depart="477" />
<vehicle id="MotorCycle_276" type="MotorCycle" route="route_1" depart="478" />
<vehicle id="MotorCycle_277" type="MotorCycle" route="route_2" depart="478" />
<vehicle id="Car_278" type="Car" route="route_1" depart="479" />
<vehicle id="MotorCycle_279" type="MotorCycle" route="route_1" depart="480" />
<vehicle id="MotorCycle_280" type="MotorCycle" route="route_1" depart="481" />
<vehicle id="MotorCycle_281" type="MotorCycle" route="route_7" depart="481" />
<vehicle id="Car_282" type="Car" route="route_1" depart="482" />
<vehicle id="MotorCycle_283" type="MotorCycle" route="route_2" depart="482" />
<vehicle id="MotorCycle_284" type="MotorCycle" route="route_1" depart="483" />
<vehicle id="Auto_285" type="Auto" route="route_2" depart="483" />
<vehicle id="MotorCycle_286" type="MotorCycle" route="route_3" depart="483" />
<vehicle id="MotorCycle_287" type="MotorCycle" route="route_9" depart="483" />
<vehicle id="MotorCycle_288" type="MotorCycle" route="route_1" depart="484" />
<vehicle id="MotorCycle_289" type="MotorCycle" route="route_3" depart="484" />
<vehicle id="MotorCycle_290" type="MotorCycle" route="route_1" depart="485" />
<vehicle id="MotorCycle_291" type="MotorCycle" route="route_2" depart="485" />
<vehicle id="MotorCycle_292" type="MotorCycle" route="route_1" depart="486" />
<vehicle id="MotorCycle_293" type="MotorCycle" route="route_8" depart="486" />
<vehicle id="MotorCycle_294" type="MotorCycle" route="route_1" depart="487" />
<vehicle id="Car_295" type="Car" route="route_2" depart="487" />
<vehicle id="MotorCycle_296" type="MotorCycle" route="route_9" depart="487" />
<vehicle id="MotorCycle_297" type="MotorCycle" route="route_1" depart="488" />
<vehicle id="MotorCycle_298" type="MotorCycle" route="route_6" depart="488" />
<vehicle id="MotorCycle_299" type="MotorCycle" route="route_8" depart="488" />
<vehicle id="Auto_300" type="Auto" route="route_1" depart="489" />
<vehicle id="MotorCycle_301" type="MotorCycle" route="route_2" depart="489" />
<vehicle id="MotorCycle_302" type="MotorCycle" route="route_8" depart="489" />
<vehicle id="MotorCycle_303" type="MotorCycle" route="route_1" depart="490" />
<vehicle id="Auto_304" type="Auto" route="route_2" depart="490" />
<vehicle id="MotorCycle_305" type="MotorCycle" route="route_7" depart="490" />
<vehicle id="MotorCycle_306" type="MotorCycle" route="route_1" depart="491" />
<vehicle id="MotorCycle_307" type="MotorCycle" route="route_2" depart="491" />
<vehicle id="MotorCycle_308" type="MotorCycle" route="route_4" depart="491" />
<vehicle id="MotorCycle_309" type="MotorCycle" route="route_7" depart="491" />
<vehicle id="MotorCycle_310" type="MotorCycle" route="route_1" depart="492" />
<vehicle id="MotorCycle_311" type="MotorCycle" route="route_2" depart="492" />
<vehicle id="MotorCycle_312" type="MotorCycle" route="route_1" depart="493" />
<vehicle id="Car_313" type="Car" route="route_2" depart="493" />
<vehicle id="Auto_314" type="Auto" route="route_9" depart="493" />
<vehicle id="MotorCycle_315" type="MotorCycle" route="route_1" depart="494" />
<vehicle id="MotorCycle_316" type="MotorCycle" route="route_2" depart="494" />
<vehicle id="MotorCycle_317" type="MotorCycle" route="route_2" depart="495" />
<vehicle id="MotorCycle_318" type="MotorCycle" route="route_1" depart="496" />
<vehicle id="MotorCycle_319" type="MotorCycle" route="route_2" depart="496" />
<vehicle id="MotorCycle_320" type="MotorCycle" route="route_5" depart="496" />
<vehicle id="MotorCycle_321" type="MotorCycle" route="route_1" depart="497" />
<vehicle id="MotorCycle_322" type="MotorCycle" route="route_10" depart="497" />
<vehicle id="MotorCycle_323" type="MotorCycle" route="route_1" depart="498" />
<vehicle id="MotorCycle_324" type="MotorCycle" route="route_2" depart="498" />
<vehicle id="MotorCycle_325" type="MotorCycle" route="route_3" depart="498" />
<vehicle id="Car_326" type="Car" route="route_5" depart="498" />
<vehicle id="Car_327" type="Car" route="route_2" depart="499" />
<vehicle id="MotorCycle_328" type="MotorCycle" route="route_5" depart="501" />
<vehicle id="MotorCycle_329" type="MotorCycle" route="route_9" depart="510" />
<vehicle id="MotorCycle_330" type="MotorCycle" route="route_10" depart="510" />
<vehicle id="Car_331" type="Car" route="route_3" depart="515" />
<vehicle id="Auto_332" type="Auto" route="route_7" depart="515" />
<vehicle id="MotorCycle_333" type="MotorCycle" route="route_10" depart="519" />
<vehicle id="MotorCycle_334" type="MotorCycle" route="route_1" depart="526" />
<vehicle id="MotorCycle_335" type="MotorCycle" route="route_4" depart="528" />
<vehicle id="MotorCycle_336" type="MotorCycle" route="route_6" depart="529" />
<vehicle id="MotorCycle_337" type="MotorCycle" route="route_9" depart="531" />
<vehicle id="MotorCycle_338" type="MotorCycle" route="route_1" depart="536" />
<vehicle id="Bus_339" type="Bus" route="route_1" depart="538" />
<vehicle id="Auto_340" type="Auto" route="route_1" depart="548" />
<vehicle id="MotorCycle_341" type="MotorCycle" route="route_1" depart="549" />
<vehicle id="Auto_342" type="Auto" route="route_7" depart="550" />
<vehicle id="MotorCycle_343" type="MotorCycle" route="route_2" depart="552" />
<vehicle id="MotorCycle_344" type="MotorCycle" route="route_4" depart="554" />
<vehicle id="Car_345" type="Car" route="route_3" depart="555" />
<vehicle id="Car_346" type="Car" route="route_1" depart="564" />
<vehicle id="Car_347" type="Car" route="route_8" depart="565" />
<vehicle id="MotorCycle_348" type="MotorCycle" route="route_1" depart="573" />
<vehicle id="Car_349" type="Car" route="route_8" depart="579" />
<vehicle id="MotorCycle_350" type="MotorCycle" route="route_10" depart="580" />
<vehicle id="MotorCycle_351" type="MotorCycle" route="route_1" depart="585" />
<vehicle id="MotorCycle_352" type="MotorCycle" route="route_2" depart="586" />
<vehicle id="MotorCycle_353" type="MotorCycle" route="route_8" depart="590" />
<vehicle id="MotorCycle_354" type="MotorCycle" route="route_6" depart="591" />
<vehicle id="Car_355" type="Car" route="route_15" depart="591" />
<vehicle id="Car_356" type="Car" route="route_2" depart="593" />
<vehicle id="MotorCycle_357" type="MotorCycle" route="route_1" depart="594" />