<routes>
<vType id="Bus" accel="0.6" decel="3.5" sigma="0.5" length="10.1" minGap="1.0" maxSpeed="16.67" carFollowModel="Wiedemann" guiShape="bus" width="2.45" latAlignment="left" laneChangeModel="SL2015" lcStrategic="0.5" lcCooperative="0.0"/>
<vType id="Auto" accel="0.7" decel="4.5" sigma="0.5" length="2.6" minGap="0.3" maxSpeed="16" carFollowModel="Wiedemann" guiShape="passenger/sedan" width="1.25" latAlignment="left" laneChangeModel="SL2015" lcStrategic="0.5" lcCooperative="0.0" />
<vType id="MotorCycle" accel="0.9" decel="3.5" sigma="0.5" length="1.85" minGap="0.15"  carFollowModel="Wiedemann" maxSpeed="17" guiShape="motorcycle" width="0.7" latAlignment="left" laneChangeModel="SL2015" lcStrategic="0.5" lcCooperative="0.0"/>
<vType id="Car" accel="0.8" decel="4.5" sigma="0.5" length="3.6" minGap="0.5" maxSpeed="40" carFollowModel="Wiedemann" guiShape="passenger" width="1.5" latAlignment="left" laneChangeModel="SL2015" lcStrategic="0.5" lcCooperative="0.0"/>
<vType id="emergency" accel="2.8" decel="5.5" sigma="0.5" length="3.6" minGap="0.5" maxSpeed="120.6" carFollowModel="Wiedemann" guiShape="emergency" width="1.5" latAlignment="left" laneChangeModel="SL2015" lcStrategic="0.5" lcCooperative="0.0" vClass="emergency" speedFactor="1.9" jmDriveAfterRedTime="300" jmDriveAfterRedSpeed="5.56">
<param key="has.bluelight.device" value="true"/>
<param key="has.fcd.device" value="true"/> 
</vType>
	<route id="route_0" edges="78[0] 56a 56b 78[1][1]" />
	<route id="route_1" edges="78[0] 56a 56b 78[1][1] 189[0] 189[1][0]+20000 189[1][1] 188 87[0] 20001+87[1][0] 87[1][1] m90 89[0] 20002+89[1][0] 89[1][1] 91 186 109[0] 109[1][0]+20003 109[1][1] 116 46 134 134b -gneE0" />
        <route id="route_2" edges="gneE0 133 31 115 110 185 92 90 m91 88 187 190 77[0] 77[1][1] " />
        <route id="route_3" edges="78[0] 56a 56b 79 68 11 84" />
        <route id="route_4" edges="78[0] 56a 56b 21a 21b " /> 
        <route id="route_5" edges="75 77[0] 79 68 11 84 " />
        <route id="route_6" edges="75 77[0] 21a 21b" />
        <route id="route_7" edges="gneE0 133 31 201 201c 204a[0] " />
        <route id="route_8" edges="gneE0 133 31 113 209" />
        <route id="route_9" edges="119 116 46 113 209" />
        <route id="route_10" edges="119 116 46 201 201c 204a[0]" />
        <route id="route_11" edges="59" />
        <route id="route_12" edges="59" />
        <route id="route_13" edges="59" />
        <route id="route_14" edges="59" />
        <route id="route_15" edges="59" />
        <route id="route_16" edges="59" />
        <route id="route_17" edges="59" />
        <route id="route_18" edges="59" />
        <route id="route_19" edges="59" />
        <route id="route_20" edges="59" />
        <route id="route_21" edges="59" />
        <route id="route_22" edges="59" />
        <route id="route_23" edges="59" />

	<route id="route_24" edges="59"/>
<vehicle id="emergency_0" type="emergency" route="route_4" depart="0" />
<vehicle id="Bus_0" type="Bus" route="route_4" depart="0" />
<vehicle id="Car_0" type="Car" route="route_10" depart="0" />
<vehicle id="Bus_1" type="MotorCycle" route="route_2" depart="1" />
<vehicle id="Auto_2" type="MotorCycle" route="route_2" depart="3" />
<vehicle id="Bus_3" type="Bus" route="route_1" depart="4" />
<vehicle id="Bus_4" type="MotorCycle" route="route_1" depart="4" />
<vehicle id="Bus_5" type="MotorCycle" route="route_2" depart="4" />
<vehicle id="Auto_6" type="MotorCycle" route="route_4" depart="5" />
<vehicle id="Bus_7" type="MotorCycle" route="route_2" depart="6" />
<vehicle id="MotorCycle_8" type="MotorCycle" route="route_3" depart="6" />
<vehicle id="Car_9" type="MotorCycle" route="route_5" depart="7" />
<vehicle id="Auto_10" type="MotorCycle" route="route_1" depart="8" />
<vehicle id="Auto_11" type="MotorCycle" route="route_1" depart="9" />
<vehicle id="Bus_12" type="MotorCycle" route="route_1" depart="12" />
<vehicle id="MotorCycle_13" type="Auto" route="route_2" depart="12" />
<vehicle id="Auto_14" type="MotorCycle" route="route_1" depart="13" />
<vehicle id="MotorCycle_15" type="MotorCycle" route="route_3" depart="13" />
<vehicle id="MotorCycle_16" type="MotorCycle" route="route_7" depart="13" />
<vehicle id="Bus_17" type="Auto" route="route_1" depart="14" />
<vehicle id="Bus_18" type="MotorCycle" route="route_1" depart="14" />
<vehicle id="MotorCycle_19" type="MotorCycle" route="route_2" depart="15" />
<vehicle id="Auto_20" type="MotorCycle" route="route_1" depart="16" />
<vehicle id="Auto_21" type="Car" route="route_1" depart="16" />
<vehicle id="Auto_22" type="MotorCycle" route="route_4" depart="18" />
<vehicle id="Bus_23" type="MotorCycle" route="route_2" depart="19" />
<vehicle id="MotorCycle_24" type="MotorCycle" route="route_4" depart="21" />
<vehicle id="MotorCycle_25" type="MotorCycle" route="route_9" depart="22" />
<vehicle id="Auto_26" type="Auto" route="route_8" depart="23" />
<vehicle id="Auto_27" type="MotorCycle" route="route_8" depart="23" />
<vehicle id="Auto_28" type="MotorCycle" route="route_5" depart="25" />
<vehicle id="Bus_29" type="Auto" route="route_2" depart="26" />
<vehicle id="Car_30" type="Auto" route="route_6" depart="26" />
<vehicle id="Car_31" type="MotorCycle" route="route_6" depart="26" />
<vehicle id="Car_32" type="Car" route="route_6" depart="26" />
<vehicle id="Car_33" type="MotorCycle" route="route_3" depart="27" />
<vehicle id="Bus_34" type="MotorCycle" route="route_1" depart="30" />
<vehicle id="Bus_35" type="MotorCycle" route="route_2" depart="30" />
<vehicle id="Car_36" type="MotorCycle" route="route_2" depart="31" />
<vehicle id="MotorCycle_37" type="MotorCycle" route="route_8" depart="31" />
<vehicle id="MotorCycle_38" type="MotorCycle" route="route_4" depart="34" />
<vehicle id="Car_39" type="MotorCycle" route="route_10" depart="34" />
<vehicle id="MotorCycle_40" type="MotorCycle" route="route_1" depart="38" />
<vehicle id="Bus_41" type="MotorCycle" route="route_2" depart="40" />
<vehicle id="Auto_42" type="MotorCycle" route="route_5" depart="41" />
<vehicle id="MotorCycle_43" type="MotorCycle" route="route_1" depart="42" />
<vehicle id="Bus_44" type="MotorCycle" route="route_5" depart="42" />
<vehicle id="Bus_45" type="Car" route="route_5" depart="42" />
<vehicle id="MotorCycle_46" type="MotorCycle" route="route_24" depart="44" />
<vehicle id="MotorCycle_47" type="Bus" route="route_9" depart="46" />
<vehicle id="MotorCycle_48" type="MotorCycle" route="route_9" depart="46" />
<vehicle id="MotorCycle_49" type="MotorCycle" route="route_1" depart="48" />
<vehicle id="MotorCycle_50" type="Car" route="route_1" depart="48" />
<vehicle id="Bus_51" type="MotorCycle" route="route_1" depart="49" />
<vehicle id="Auto_52" type="MotorCycle" route="route_3" depart="49" />
<vehicle id="Bus_53" type="Auto" route="route_2" depart="51" />
<vehicle id="Bus_54" type="MotorCycle" route="route_2" depart="51" />
<vehicle id="Bus_55" type="Car" route="route_2" depart="51" />
<vehicle id="Car_56" type="MotorCycle" route="route_2" depart="54" />
<vehicle id="Car_57" type="MotorCycle" route="route_1" depart="57" />
<vehicle id="Car_58" type="MotorCycle" route="route_9" depart="57" />
<vehicle id="Bus_59" type="MotorCycle" route="route_1" depart="58" />
<vehicle id="MotorCycle_60" type="MotorCycle" route="route_2" depart="58" />
<vehicle id="Bus_61" type="MotorCycle" route="route_4" depart="58" />
<vehicle id="Car_62" type="MotorCycle" route="route_1" depart="59" />
<vehicle id="Car_63" type="Car" route="route_1" depart="59" />
<vehicle id="MotorCycle_64" type="Car" route="route_9" depart="60" />
<vehicle id="Car_65" type="MotorCycle" route="route_3" depart="62" />
<vehicle id="Auto_66" type="MotorCycle" route="route_1" depart="63" />
<vehicle id="Auto_67" type="Auto" route="route_6" depart="63" />
<vehicle id="Auto_68" type="MotorCycle" route="route_6" depart="63" />
<vehicle id="Auto_69" type="Car" route="route_6" depart="63" />
<vehicle id="Bus_70" type="Car" route="route_8" depart="63" />
<vehicle id="Auto_71" type="MotorCycle" route="route_2" depart="64" />
<vehicle id="Car_72" type="Car" route="route_1" depart="65" />
<vehicle id="Auto_73" type="MotorCycle" route="route_2" depart="67" />
<vehicle id="MotorCycle_74" type="Auto" route="route_6" depart="72" />
<vehicle id="Auto_75" type="MotorCycle" route="route_6" depart="73" />
<vehicle id="Auto_76" type="MotorCycle" route="route_7" depart="73" />
<vehicle id="Car_77" type="MotorCycle" route="route_1" depart="74" />
<vehicle id="MotorCycle_78" type="MotorCycle" route="route_2" depart="74" />
<vehicle id="Car_79" type="MotorCycle" route="route_2" depart="75" />
<vehicle id="Car_80" type="MotorCycle" route="route_3" depart="77" />
<vehicle id="MotorCycle_81" type="MotorCycle" route="route_3" depart="78" />
<vehicle id="Auto_82" type="MotorCycle" route="route_1" depart="79" />
<vehicle id="Auto_83" type="MotorCycle" route="route_8" depart="79" />
<vehicle id="Car_84" type="MotorCycle" route="route_1" depart="80" />
<vehicle id="Car_85" type="Car" route="route_1" depart="80" />
<vehicle id="Bus_86" type="MotorCycle" route="route_3" depart="81" />
<vehicle id="Auto_87" type="MotorCycle" route="route_6" depart="83" />
<vehicle id="MotorCycle_88" type="MotorCycle" route="route_9" depart="84" />
<vehicle id="Car_89" type="Bus" route="route_6" depart="85" />
<vehicle id="Car_90" type="MotorCycle" route="route_6" depart="85" />
<vehicle id="Car_91" type="MotorCycle" route="route_2" depart="86" />
<vehicle id="MotorCycle_92" type="MotorCycle" route="route_1" depart="89" />
<vehicle id="Car_93" type="MotorCycle" route="route_5" depart="89" />
<vehicle id="Bus_94" type="MotorCycle" route="route_1" depart="90" />
<vehicle id="Car_95" type="MotorCycle" route="route_2" depart="90" />
<vehicle id="Bus_96" type="Car" route="route_2" depart="93" />
<vehicle id="Bus_97" type="Auto" route="route_9" depart="93" />
<vehicle id="Bus_98" type="MotorCycle" route="route_9" depart="93" />
<vehicle id="Auto_99" type="MotorCycle" route="route_10" depart="94" />
<vehicle id="MotorCycle_100" type="MotorCycle" route="route_1" depart="98" />
<vehicle id="Bus_101" type="Bus" route="route_6" depart="106" />
<vehicle id="Bus_102" type="MotorCycle" route="route_6" depart="106" />
<vehicle id="MotorCycle_103" type="MotorCycle" route="route_1" depart="110" />
<vehicle id="Auto_104" type="Car" route="route_2" depart="114" />
<vehicle id="MotorCycle_105" type="MotorCycle" route="route_9" depart="120" />
<vehicle id="Auto_106" type="MotorCycle" route="route_4" depart="130" />
<vehicle id="Auto_107" type="Car" route="route_10" depart="134" />
<vehicle id="MotorCycle_108" type="MotorCycle" route="route_19" depart="138" />
<vehicle id="MotorCycle_109" type="MotorCycle" route="route_9" depart="140" />
<vehicle id="Car_110" type="MotorCycle" route="route_4" depart="142" />
<vehicle id="Car_111" type="Car" route="route_4" depart="142" />
<vehicle id="Auto_112" type="MotorCycle" route="route_7" depart="153" />
<vehicle id="Car_113" type="MotorCycle" route="route_9" depart="156" />
<vehicle id="Auto_114" type="MotorCycle" route="route_2" depart="159" />
<vehicle id="Auto_115" type="MotorCycle" route="route_6" depart="161" />
<vehicle id="Auto_116" type="MotorCycle" route="route_4" depart="164" />
<vehicle id="Bus_117" type="MotorCycle" route="route_1" depart="165" />
<vehicle id="Auto_118" type="Car" route="route_10" depart="168" />
<vehicle id="Car_119" type="MotorCycle" route="route_6" depart="170" />
<vehicle id="MotorCycle_120" type="MotorCycle" route="route_10" depart="176" />
<vehicle id="MotorCycle_121" type="MotorCycle" route="route_5" depart="178" />
<vehicle id="Auto_122" type="MotorCycle" route="route_9" depart="183" />
<vehicle id="Auto_123" type="Car" route="route_4" depart="188" />
<vehicle id="Auto_124" type="MotorCycle" route="route_10" depart="189" />
<vehicle id="Bus_125" type="MotorCycle" route="route_2" depart="196" />
<vehicle id="Bus_126" type="Car" route="route_2" depart="196" />
<vehicle id="Auto_127" type="MotorCycle" route="route_7" depart="198" />
<vehicle id="MotorCycle_128" type="Car" route="route_10" depart="200" />
<vehicle id="MotorCycle_129" type="MotorCycle" route="route_8" depart="203" />
<vehicle id="MotorCycle_130" type="MotorCycle" route="route_8" depart="204" />
<vehicle id="MotorCycle_131" type="Bus" route="route_4" depart="207" />
<vehicle id="MotorCycle_132" type="MotorCycle" route="route_4" depart="207" />
<vehicle id="MotorCycle_133" type="Car" route="route_4" depart="207" />
<vehicle id="Car_134" type="MotorCycle" route="route_10" depart="217" />
<vehicle id="Auto_135" type="Car" route="route_9" depart="221" />
<vehicle id="Bus_136" type="Car" route="route_4" depart="226" />
<vehicle id="MotorCycle_137" type="MotorCycle" route="route_3" depart="229" />
<vehicle id="Car_138" type="MotorCycle" route="route_8" depart="231" />
<vehicle id="Bus_139" type="MotorCycle" route="route_2" depart="240" />
<vehicle id="Auto_140" type="MotorCycle" route="route_7" depart="243" />
<vehicle id="Car_141" type="MotorCycle" route="route_7" depart="244" />
<vehicle id="Auto_142" type="MotorCycle" route="route_4" depart="246" />
<vehicle id="Car_143" type="MotorCycle" route="route_1" depart="248" />
<vehicle id="Car_144" type="Car" route="route_1" depart="248" />
<vehicle id="Car_145" type="MotorCycle" route="route_4" depart="249" />
<vehicle id="MotorCycle_146" type="MotorCycle" route="route_8" depart="254" />
<vehicle id="MotorCycle_147" type="Car" route="route_8" depart="254" />
<vehicle id="Bus_148" type="MotorCycle" route="route_3" depart="270" />
<vehicle id="MotorCycle_149" type="MotorCycle" route="route_1" depart="273" />
<vehicle id="Car_150" type="MotorCycle" route="route_5" depart="276" />
<vehicle id="Car_151" type="Car" route="route_5" depart="276" />
<vehicle id="Car_152" type="MotorCycle" route="route_9" depart="276" />
<vehicle id="Car_153" type="Car" route="route_9" depart="276" />
<vehicle id="MotorCycle_154" type="MotorCycle" route="route_2" depart="280" />
<vehicle id="Car_155" type="MotorCycle" route="route_1" depart="289" />
<vehicle id="Car_156" type="Car" route="route_1" depart="289" />
<vehicle id="Bus_157" type="MotorCycle" route="route_2" depart="289" />
<vehicle id="Car_158" type="MotorCycle" route="route_1" depart="295" />
<vehicle id="Car_159" type="MotorCycle" route="route_3" depart="301" />
<vehicle id="Bus_160" type="MotorCycle" route="route_24" depart="302" />
<vehicle id="Bus_161" type="Car" route="route_24" depart="302" />
<vehicle id="Bus_162" type="MotorCycle" route="route_3" depart="309" />
<vehicle id="Bus_163" type="MotorCycle" route="route_9" depart="319" />
<vehicle id="MotorCycle_164" type="MotorCycle" route="route_1" depart="326" />
<vehicle id="Bus_165" type="MotorCycle" route="route_3" depart="335" />
<vehicle id="Car_166" type="MotorCycle" route="route_6" depart="335" />
<vehicle id="Car_167" type="Car" route="route_6" depart="335" />
<vehicle id="Auto_168" type="MotorCycle" route="route_1" depart="336" />
<vehicle id="Car_169" type="MotorCycle" route="route_4" depart="336" />
<vehicle id="MotorCycle_170" type="MotorCycle" route="route_8" depart="337" />
<vehicle id="MotorCycle_171" type="Auto" route="route_5" depart="346" />
<vehicle id="MotorCycle_172" type="MotorCycle" route="route_5" depart="346" />
<vehicle id="Auto_173" type="MotorCycle" route="route_6" depart="347" />
<vehicle id="Auto_174" type="MotorCycle" route="route_10" depart="347" />
<vehicle id="MotorCycle_175" type="MotorCycle" route="route_2" depart="350" />
<vehicle id="MotorCycle_176" type="Car" route="route_2" depart="350" />
<vehicle id="Car_177" type="MotorCycle" route="route_9" depart="372" />
<vehicle id="Bus_178" type="MotorCycle" route="route_6" depart="376" />
<vehicle id="Car_179" type="MotorCycle" route="route_10" depart="376" />
<vehicle id="Auto_180" type="MotorCycle" route="route_8" depart="380" />
<vehicle id="Auto_181" type="Car" route="route_8" depart="380" />
<vehicle id="Bus_182" type="MotorCycle" route="route_1" depart="381" />
<vehicle id="Bus_183" type="Car" route="route_1" depart="381" />
<vehicle id="Bus_184" type="MotorCycle" route="route_7" depart="388" />
<vehicle id="Bus_185" type="MotorCycle" route="route_10" depart="390" />
<vehicle id="MotorCycle_186" type="MotorCycle" route="route_2" depart="392" />
<vehicle id="Bus_187" type="MotorCycle" route="route_3" depart="393" />
<vehicle id="Auto_188" type="Car" route="route_10" depart="409" />
<vehicle id="Car_189" type="MotorCycle" route="route_1" depart="410" />
<vehicle id="Auto_190" type="MotorCycle" route="route_8" depart="419" />
<vehicle id="Bus_191" type="Auto" route="route_2" depart="423" />
<vehicle id="Bus_192" type="MotorCycle" route="route_2" depart="423" />
<vehicle id="MotorCycle_193" type="MotorCycle" route="route_3" depart="423" />
<vehicle id="MotorCycle_194" type="MotorCycle" route="route_7" depart="424" />
<vehicle id="Bus_195" type="MotorCycle" route="route_3" depart="435" />
<vehicle id="MotorCycle_196" type="MotorCycle" route="route_9" depart="440" />
<vehicle id="MotorCycle_197" type="Car" route="route_9" depart="440" />
<vehicle id="Car_198" type="MotorCycle" route="route_6" depart="441" />
<vehicle id="MotorCycle_199" type="Car" route="route_5" depart="442" />
<vehicle id="Car_200" type="MotorCycle" route="route_5" depart="443" />
<vehicle id="Auto_201" type="MotorCycle" route="route_1" depart="444" />
<vehicle id="Auto_202" type="Auto" route="route_8" depart="444" />
<vehicle id="Auto_203" type="Car" route="route_8" depart="444" />
<vehicle id="Bus_204" type="MotorCycle" route="route_7" depart="446" />
<vehicle id="Auto_205" type="MotorCycle" route="route_4" depart="450" />
<vehicle id="Auto_206" type="Car" route="route_4" depart="450" />
<vehicle id="MotorCycle_207" type="MotorCycle" route="route_1" depart="451" />
<vehicle id="Bus_208" type="MotorCycle" route="route_2" depart="451" />
<vehicle id="Car_209" type="Auto" route="route_1" depart="452" />
<vehicle id="Car_210" type="MotorCycle" route="route_1" depart="452" />
<vehicle id="Bus_211" type="MotorCycle" route="route_1" depart="453" />
<vehicle id="MotorCycle_212" type="MotorCycle" route="route_2" depart="453" />
<vehicle id="MotorCycle_213" type="Car" route="route_2" depart="453" />
<vehicle id="Bus_214" type="MotorCycle" route="route_8" depart="453" />
<vehicle id="Bus_215" type="Car" route="route_8" depart="453" />
<vehicle id="Car_216" type="MotorCycle" route="route_10" depart="453" />
<vehicle id="Car_217" type="MotorCycle" route="route_1" depart="454" />
<vehicle id="Bus_218" type="MotorCycle" route="route_5" depart="454" />
<vehicle id="Bus_219" type="MotorCycle" route="route_1" depart="455" />
<vehicle id="Bus_220" type="Auto" route="route_2" depart="455" />
<vehicle id="Bus_221" type="MotorCycle" route="route_2" depart="455" />
<vehicle id="MotorCycle_222" type="Auto" route="route_1" depart="456" />
<vehicle id="MotorCycle_223" type="MotorCycle" route="route_1" depart="456" />
<vehicle id="MotorCycle_224" type="Car" route="route_1" depart="456" />
<vehicle id="Bus_225" type="MotorCycle" route="route_2" depart="456" />
<vehicle id="MotorCycle_226" type="Auto" route="route_3" depart="456" />
<vehicle id="Bus_227" type="MotorCycle" route="route_2" depart="457" />
<vehicle id="MotorCycle_228" type="MotorCycle" route="route_4" depart="457" />
<vehicle id="Car_229" type="Car" route="route_6" depart="457" />
<vehicle id="Car_230" type="MotorCycle" route="route_1" depart="458" />
<vehicle id="Bus_231" type="MotorCycle" route="route_2" depart="458" />
<vehicle id="MotorCycle_232" type="MotorCycle" route="route_1" depart="459" />
<vehicle id="Bus_233" type="MotorCycle" route="route_2" depart="459" />
<vehicle id="Bus_234" type="Car" route="route_2" depart="459" />
<vehicle id="Bus_235" type="MotorCycle" route="route_5" depart="459" />
<vehicle id="Bus_236" type="MotorCycle" route="route_1" depart="460" />
<vehicle id="Auto_237" type="MotorCycle" route="route_2" depart="460" />
<vehicle id="Bus_238" type="MotorCycle" route="route_1" depart="461" />
<vehicle id="MotorCycle_239" type="MotorCycle" route="route_3" depart="461" />
<vehicle id="Bus_240" type="MotorCycle" route="route_6" depart="461" />
<vehicle id="Bus_241" type="Car" route="route_6" depart="461" />
<vehicle id="Auto_242" type="MotorCycle" route="route_2" depart="462" />
<vehicle id="Auto_243" type="Car" route="route_2" depart="462" />
<vehicle id="Bus_244" type="MotorCycle" route="route_1" depart="464" />
<vehicle id="Auto_245" type="MotorCycle" route="route_4" depart="464" />
<vehicle id="Car_246" type="MotorCycle" route="route_7" depart="464" />
<vehicle id="Car_247" type="MotorCycle" route="route_1" depart="465" />
<vehicle id="Car_248" type="Car" route="route_1" depart="465" />
<vehicle id="MotorCycle_249" type="MotorCycle" route="route_2" depart="466" />
<vehicle id="Auto_250" type="MotorCycle" route="route_5" depart="466" />
<vehicle id="Auto_251" type="MotorCycle" route="route_1" depart="467" />
<vehicle id="MotorCycle_252" type="MotorCycle" route="route_2" depart="467" />
<vehicle id="Auto_253" type="MotorCycle" route="route_1" depart="468" />
<vehicle id="MotorCycle_254" type="MotorCycle" route="route_2" depart="468" />
<vehicle id="Car_255" type="MotorCycle" route="route_1" depart="469" />
<vehicle id="Car_256" type="Car" route="route_1" depart="469" />
<vehicle id="Car_257" type="MotorCycle" route="route_2" depart="469" />
<vehicle id="Car_258" type="MotorCycle" route="route_1" depart="470" />
<vehicle id="Car_259" type="MotorCycle" route="route_2" depart="470" />
<vehicle id="Bus_260" type="MotorCycle" route="route_2" depart="471" />
<vehicle id="Bus_261" type="MotorCycle" route="route_8" depart="471" />
<vehicle id="Bus_262" type="Car" route="route_8" depart="471" />
<vehicle id="Auto_263" type="MotorCycle" route="route_9" depart="471" />
<vehicle id="Bus_264" type="Car" route="route_1" depart="472" />
<vehicle id="Auto_265" type="MotorCycle" route="route_2" depart="472" />
<vehicle id="MotorCycle_266" type="MotorCycle" route="route_3" depart="472" />
<vehicle id="Bus_267" type="MotorCycle" route="route_9" depart="472" />
<vehicle id="Auto_268" type="MotorCycle" route="route_2" depart="473" />
<vehicle id="Bus_269" type="MotorCycle" route="route_8" depart="473" />
<vehicle id="Auto_270" type="MotorCycle" route="route_1" depart="474" />
<vehicle id="Auto_271" type="Car" route="route_1" depart="474" />
<vehicle id="Bus_272" type="Auto" route="route_2" depart="474" />
<vehicle id="Bus_273" type="MotorCycle" route="route_2" depart="474" />
<vehicle id="Car_274" type="MotorCycle" route="route_5" depart="474" />
<vehicle id="Auto_275" type="MotorCycle" route="route_2" depart="475" />
<vehicle id="Auto_276" type="Car" route="route_2" depart="475" />
<vehicle id="Bus_277" type="Bus" route="route_1" depart="476" />
<vehicle id="Bus_278" type="Auto" route="route_1" depart="476" />
<vehicle id="Bus_279" type="MotorCycle" route="route_1" depart="476" />
<vehicle id="Bus_280" type="MotorCycle" route="route_6" depart="476" />
<vehicle id="Car_281" type="MotorCycle" route="route_1" depart="477" />
<vehicle id="Bus_282" type="MotorCycle" route="route_1" depart="478" />
<vehicle id="Bus_283" type="Car" route="route_1" depart="478" />
<vehicle id="Bus_284" type="MotorCycle" route="route_2" depart="478" />
<vehicle id="Auto_285" type="MotorCycle" route="route_1" depart="479" />
<vehicle id="Auto_286" type="MotorCycle" route="route_2" depart="479" />
<vehicle id="MotorCycle_287" type="Auto" route="route_1" depart="480" />
<vehicle id="MotorCycle_288" type="MotorCycle" route="route_1" depart="480" />
<vehicle id="Bus_289" type="MotorCycle" route="route_2" depart="480" />
<vehicle id="Auto_290" type="MotorCycle" route="route_1" depart="481" />
<vehicle id="MotorCycle_291" type="MotorCycle" route="route_2" depart="481" />
<vehicle id="Auto_292" type="Auto" route="route_9" depart="481" />
<vehicle id="Auto_293" type="Auto" route="route_1" depart="482" />
<vehicle id="Auto_294" type="MotorCycle" route="route_1" depart="482" />
<vehicle id="Bus_295" type="MotorCycle" route="route_1" depart="483" />
<vehicle id="Bus_296" type="MotorCycle" route="route_7" depart="483" />
<vehicle id="Auto_297" type="MotorCycle" route="route_1" depart="484" />
<vehicle id="Bus_298" type="Bus" route="route_2" depart="484" />
<vehicle id="Bus_299" type="MotorCycle" route="route_2" depart="484" />
<vehicle id="Bus_300" type="MotorCycle" route="route_10" depart="484" />
<vehicle id="Car_301" type="MotorCycle" route="route_2" depart="485" />
<vehicle id="Auto_302" type="Car" route="route_1" depart="486" />
<vehicle id="Auto_303" type="Bus" route="route_5" depart="486" />
<vehicle id="Car_304" type="MotorCycle" route="route_1" depart="488" />
<vehicle id="Auto_305" type="MotorCycle" route="route_2" depart="488" />
<vehicle id="Auto_306" type="Auto" route="route_5" depart="488" />
<vehicle id="Auto_307" type="MotorCycle" route="route_5" depart="488" />
<vehicle id="MotorCycle_308" type="MotorCycle" route="route_2" depart="489" />
<vehicle id="MotorCycle_309" type="MotorCycle" route="route_1" depart="490" />
<vehicle id="MotorCycle_310" type="MotorCycle" route="route_2" depart="490" />
<vehicle id="MotorCycle_311" type="MotorCycle" route="route_8" depart="490" />
<vehicle id="MotorCycle_312" type="MotorCycle" route="route_1" depart="491" />
<vehicle id="Auto_313" type="MotorCycle" route="route_2" depart="491" />
<vehicle id="Auto_314" type="MotorCycle" route="route_4" depart="491" />
<vehicle id="MotorCycle_315" type="Bus" route="route_1" depart="492" />
<vehicle id="Bus_316" type="MotorCycle" route="route_2" depart="492" />
<vehicle id="Car_317" type="MotorCycle" route="route_1" depart="493" />
<vehicle id="MotorCycle_318" type="MotorCycle" route="route_2" depart="493" />
<vehicle id="MotorCycle_319" type="MotorCycle" route="route_6" depart="493" />
<vehicle id="Bus_320" type="MotorCycle" route="route_8" depart="493" />
<vehicle id="Bus_321" type="Car" route="route_8" depart="493" />
<vehicle id="Auto_322" type="MotorCycle" route="route_1" depart="494" />
<vehicle id="MotorCycle_323" type="MotorCycle" route="route_2" depart="494" />
<vehicle id="Auto_324" type="Car" route="route_3" depart="494" />
<vehicle id="Auto_325" type="MotorCycle" route="route_2" depart="495" />
<vehicle id="Car_326" type="MotorCycle" route="route_1" depart="496" />
<vehicle id="Auto_327" type="MotorCycle" route="route_2" depart="496" />
<vehicle id="Auto_328" type="MotorCycle" route="route_1" depart="497" />
<vehicle id="Auto_329" type="MotorCycle" route="route_2" depart="497" />
<vehicle id="MotorCycle_330" type="MotorCycle" route="route_2" depart="498" />
<vehicle id="MotorCycle_331" type="Car" route="route_2" depart="498" />
<vehicle id="Car_332" type="MotorCycle" route="route_3" depart="498" />
<vehicle id="MotorCycle_333" type="Auto" route="route_9" depart="498" />
<vehicle id="MotorCycle_334" type="MotorCycle" route="route_9" depart="498" />
<vehicle id="MotorCycle_335" type="Car" route="route_1" depart="499" />
<vehicle id="MotorCycle_336" type="MotorCycle" route="route_2" depart="499" />
<vehicle id="Auto_337" type="MotorCycle" route="route_3" depart="499" />
<vehicle id="Bus_338" type="Auto" route="route_7" depart="499" />
<vehicle id="Bus_339" type="MotorCycle" route="route_7" depart="499" />
<vehicle id="Auto_340" type="MotorCycle" route="route_4" depart="503" />
<vehicle id="Auto_341" type="Car" route="route_4" depart="503" />
<vehicle id="Auto_342" type="MotorCycle" route="route_9" depart="503" />
<vehicle id="Bus_343" type="MotorCycle" route="route_7" depart="504" />
<vehicle id="MotorCycle_344" type="MotorCycle" route="route_4" depart="505" />
<vehicle id="Auto_345" type="MotorCycle" route="route_3" depart="509" />
<vehicle id="Bus_346" type="MotorCycle" route="route_10" depart="509" />
<vehicle id="Bus_347" type="Car" route="route_10" depart="509" />
<vehicle id="Auto_348" type="MotorCycle" route="route_2" depart="512" />
<vehicle id="Car_349" type="MotorCycle" route="route_6" depart="515" />
<vehicle id="Bus_350" type="MotorCycle" route="route_7" depart="520" />
<vehicle id="Bus_351" type="MotorCycle" route="route_5" depart="521" />
<vehicle id="Bus_352" type="MotorCycle" route="route_9" depart="533" />
<vehicle id="Auto_353" type="MotorCycle" route="route_7" depart="535" />
<vehicle id="Auto_354" type="MotorCycle" route="route_1" depart="538" />
<vehicle id="MotorCycle_355" type="Auto" route="route_5" depart="539" />
<vehicle id="MotorCycle_356" type="MotorCycle" route="route_5" depart="539" />
<vehicle id="Auto_357" type="Bus" route="route_4" depart="542" />
<vehicle id="MotorCycle_358" type="MotorCycle" route="route_1" depart="546" />
<vehicle id="Auto_359" type="MotorCycle" route="route_3" depart="551" />
<vehicle id="Auto_360" type="Car" route="route_3" depart="551" />
<vehicle id="Car_361" type="MotorCycle" route="route_1" depart="552" />
<vehicle id="Car_362" type="MotorCycle" route="route_8" depart="560" />
<vehicle id="Auto_363" type="MotorCycle" route="route_7" depart="561" />
<vehicle id="Auto_364" type="Bus" route="route_4" depart="567" />
<vehicle id="Auto_365" type="MotorCycle" route="route_4" depart="567" />
<vehicle id="MotorCycle_366" type="Auto" route="route_2" depart="569" />
<vehicle id="MotorCycle_367" type="MotorCycle" route="route_2" depart="569" />
<vehicle id="Car_368" type="Auto" route="route_6" depart="581" />
<vehicle id="Car_369" type="MotorCycle" route="route_6" depart="581" />
<vehicle id="MotorCycle_370" type="MotorCycle" route="route_4" depart="585" />
<vehicle id="Car_371" type="MotorCycle" route="route_9" depart="594" />
<vehicle id="Car_372" type="MotorCycle" route="route_4" depart="595" />
<vehicle id="Car_373" type="Car" route="route_4" depart="595" />
<vehicle id="MotorCycle_374" type="MotorCycle" route="route_10" depart="597" />
<vehicle id="Auto_375" type="MotorCycle" route="route_8" depart="599" />