<routes>
<vType id="Bus" accel="0.6" decel="3.5" sigma="0.5" length="10.1" minGap="1.0" maxSpeed="16.67" carFollowModel="Wiedemann" guiShape="bus" width="2.45" latAlignment="left" laneChangeModel="SL2015" lcStrategic="0.5" lcCooperative="0.0"/>
<vType id="Auto" accel="0.7" decel="4.5" sigma="0.5" length="2.6" minGap="0.3" maxSpeed="16" carFollowModel="Wiedemann" guiShape="passenger/sedan" width="1.25" latAlignment="left" laneChangeModel="SL2015" lcStrategic="0.5" lcCooperative="0.0" />
<vType id="MotorCycle" accel="0.9" decel="3.5" sigma="0.5" length="1.85" minGap="0.15"  carFollowModel="Wiedemann" maxSpeed="17" guiShape="motorcycle" width="0.7" latAlignment="left" laneChangeModel="SL2015" lcStrategic="0.5" lcCooperative="0.0"/>
<vType id="Car" accel="0.8" decel="4.5" sigma="0.5" length="3.6" minGap="0.5" maxSpeed="40" carFollowModel="Wiedemann" guiShape="passenger" width="1.5" latAlignment="left" laneChangeModel="SL2015" lcStrategic="0.5" lcCooperative="0.0"/>
<vType id="emergency" accel="2.8" decel="5.5" sigma="0.5" length="3.6" minGap="0.5" maxSpeed="120.6" carFollowModel="Wiedemann" guiShape="emergency" width="1.5" latAlignment="left" laneChangeModel="SL2015" lcStrategic="0.5" lcCooperative="0.0" vClass="emergency" speedFactor="1.9" jmDriveAfterRedTime="300" jmDriveAfterRedSpeed="5.56">
<param key="has.bluelight.device" value="true"/>
<param key="has.fcd.device" value="true"/> 
</vType>
	<route id="route_0" edges="78[0] 56a 56b 78[1][1]" />
	<route id="route_1" edges="78[0] 56a 56b 78[1][1] 189[0] 189[1][0]+20000 189[1][1] 188 87[0] 20001+87[1][0] 87[1][1] m90 89[0] 20002+89[1][0] 89[1][1] 91 186 109[0] 109[1][0]+20003 109[1][1] 116 46 134 134b -gneE0" />
        <route id="route_2" edges="gneE0 133 31 115 110 185 92 90 m91 88 187 190 77[0] 77[1][1] " />
        <route id="route_3" edges="78[0] 56a 56b 79 68 11 84" />
        <route id="route_4" edges="78[0] 56a 56b 21a 21b " /> 
        <route id="route_5" edges="75 77[0] 79 68 11 84 " />
        <route id="route_6" edges="75 77[0] 21a 21b" />
        <route id="route_7" edges="gneE0 133 31 201 201c 204a[0] " />
        <route id="route_8" edges="gneE0 133 31 113 209" />
        <route id="route_9" edges="119 116 46 113 209" />
        <route id="route_10" edges="119 116 46 201 201c 204a[0]" />
        <route id="route_11" edges="59" />
        <route id="route_12" edges="59" />
        <route id="route_13" edges="59" />
        <route id="route_14" edges="59" />
        <route id="route_15" edges="59" />
        <route id="route_16" edges="59" />
        <route id="route_17" edges="59" />
        <route id="route_18" edges="59" />
        <route id="route_19" edges="59" />
        <route id="route_20" edges="59" />
        <route id="route_21" edges="59" />
        <route id="route_22" edges="59" />
        <route id="route_23" edges="59" />

	<route id="route_24" edges="59"/>
<vehicle id="emergency_0" type="emergency" route="route_11" depart="0" />
<vehicle id="Bus_0" type="Bus" route="route_11" depart="0" />
<vehicle id="Car_0" type="Car" route="route_11" depart="0" />
<vehicle id="Bus_1" type="MotorCycle" route="route_8" depart="3" />
<vehicle id="Bus_2" type="Car" route="route_8" depart="3" />
<vehicle id="Car_3" type="MotorCycle" route="route_2" depart="6" />
<vehicle id="Auto_4" type="MotorCycle" route="route_1" depart="7" />
<vehicle id="Bus_5" type="MotorCycle" route="route_3" depart="7" />
<vehicle id="MotorCycle_6" type="MotorCycle" route="route_4" depart="7" />
<vehicle id="Car_7" type="MotorCycle" route="route_2" depart="11" />
<vehicle id="Bus_8" type="MotorCycle" route="route_2" depart="13" />
<vehicle id="Bus_9" type="Car" route="route_2" depart="13" />
<vehicle id="Bus_10" type="MotorCycle" route="route_6" depart="15" />
<vehicle id="Bus_11" type="Car" route="route_6" depart="15" />
<vehicle id="MotorCycle_12" type="MotorCycle" route="route_1" depart="16" />
<vehicle id="Auto_13" type="MotorCycle" route="route_1" depart="17" />
<vehicle id="Car_14" type="MotorCycle" route="route_2" depart="17" />
<vehicle id="MotorCycle_15" type="MotorCycle" route="route_1" depart="18" />
<vehicle id="MotorCycle_16" type="Car" route="route_1" depart="18" />
<vehicle id="MotorCycle_17" type="MotorCycle" route="route_7" depart="18" />
<vehicle id="Car_18" type="MotorCycle" route="route_1" depart="19" />
<vehicle id="Car_19" type="Car" route="route_1" depart="19" />
<vehicle id="Auto_20" type="MotorCycle" route="route_1" depart="20" />
<vehicle id="Auto_21" type="MotorCycle" route="route_2" depart="23" />
<vehicle id="MotorCycle_22" type="MotorCycle" route="route_3" depart="23" />
<vehicle id="MotorCycle_23" type="Car" route="route_3" depart="23" />
<vehicle id="Auto_24" type="MotorCycle" route="route_1" depart="24" />
<vehicle id="Bus_25" type="MotorCycle" route="route_1" depart="26" />
<vehicle id="Bus_26" type="MotorCycle" route="route_1" depart="27" />
<vehicle id="Bus_27" type="MotorCycle" route="route_2" depart="27" />
<vehicle id="MotorCycle_28" type="MotorCycle" route="route_8" depart="27" />
<vehicle id="Car_29" type="MotorCycle" route="route_1" depart="28" />
<vehicle id="Auto_30" type="MotorCycle" route="route_1" depart="29" />
<vehicle id="MotorCycle_31" type="Auto" route="route_5" depart="30" />
<vehicle id="MotorCycle_32" type="MotorCycle" route="route_5" depart="30" />
<vehicle id="Auto_33" type="Car" route="route_1" depart="31" />
<vehicle id="MotorCycle_34" type="Auto" route="route_1" depart="32" />
<vehicle id="MotorCycle_35" type="MotorCycle" route="route_1" depart="32" />
<vehicle id="MotorCycle_36" type="Car" route="route_1" depart="32" />
<vehicle id="Car_37" type="Auto" route="route_2" depart="32" />
<vehicle id="Car_38" type="MotorCycle" route="route_2" depart="32" />
<vehicle id="Bus_39" type="MotorCycle" route="route_3" depart="32" />
<vehicle id="Car_40" type="Auto" route="route_1" depart="33" />
<vehicle id="Car_41" type="MotorCycle" route="route_1" depart="33" />
<vehicle id="Auto_42" type="MotorCycle" route="route_2" depart="33" />
<vehicle id="MotorCycle_43" type="MotorCycle" route="route_1" depart="35" />
<vehicle id="Car_44" type="MotorCycle" route="route_1" depart="36" />
<vehicle id="Car_45" type="MotorCycle" route="route_8" depart="36" />
<vehicle id="Bus_46" type="MotorCycle" route="route_1" depart="37" />
<vehicle id="MotorCycle_47" type="MotorCycle" route="route_2" depart="39" />
<vehicle id="MotorCycle_48" type="MotorCycle" route="route_7" depart="39" />
<vehicle id="Bus_49" type="MotorCycle" route="route_4" depart="41" />
<vehicle id="Car_50" type="MotorCycle" route="route_5" depart="41" />
<vehicle id="Bus_51" type="MotorCycle" route="route_6" depart="41" />
<vehicle id="Auto_52" type="Auto" route="route_4" depart="42" />
<vehicle id="Bus_53" type="MotorCycle" route="route_3" depart="44" />
<vehicle id="MotorCycle_54" type="Auto" route="route_4" depart="47" />
<vehicle id="MotorCycle_55" type="MotorCycle" route="route_4" depart="47" />
<vehicle id="Auto_56" type="MotorCycle" route="route_1" depart="49" />
<vehicle id="Bus_57" type="MotorCycle" route="route_6" depart="49" />
<vehicle id="Car_58" type="MotorCycle" route="route_3" depart="56" />
<vehicle id="MotorCycle_59" type="MotorCycle" route="route_4" depart="66" />
<vehicle id="MotorCycle_60" type="MotorCycle" route="route_2" depart="68" />
<vehicle id="MotorCycle_61" type="MotorCycle" route="route_10" depart="70" />
<vehicle id="Auto_62" type="MotorCycle" route="route_8" depart="78" />
<vehicle id="Auto_63" type="MotorCycle" route="route_6" depart="79" />
<vehicle id="MotorCycle_64" type="MotorCycle" route="route_7" depart="79" />
<vehicle id="MotorCycle_65" type="MotorCycle" route="route_1" depart="85" />
<vehicle id="Auto_66" type="MotorCycle" route="route_5" depart="87" />
<vehicle id="Bus_67" type="MotorCycle" route="route_22" depart="89" />
<vehicle id="Bus_68" type="MotorCycle" route="route_4" depart="90" />
<vehicle id="Car_69" type="MotorCycle" route="route_8" depart="96" />
<vehicle id="Auto_70" type="MotorCycle" route="route_1" depart="97" />
<vehicle id="MotorCycle_71" type="MotorCycle" route="route_2" depart="98" />
<vehicle id="Car_72" type="Auto" route="route_7" depart="102" />
<vehicle id="Car_73" type="MotorCycle" route="route_7" depart="102" />
<vehicle id="Auto_74" type="Auto" route="route_2" depart="105" />
<vehicle id="Auto_75" type="MotorCycle" route="route_2" depart="105" />
<vehicle id="Auto_76" type="MotorCycle" route="route_1" depart="107" />
<vehicle id="Car_77" type="MotorCycle" route="route_10" depart="108" />
<vehicle id="Car_78" type="Car" route="route_10" depart="108" />
<vehicle id="Car_79" type="Car" route="route_5" depart="109" />
<vehicle id="Bus_80" type="MotorCycle" route="route_10" depart="109" />
<vehicle id="Auto_81" type="MotorCycle" route="route_6" depart="110" />
<vehicle id="Auto_82" type="MotorCycle" route="route_4" depart="117" />
<vehicle id="Car_83" type="MotorCycle" route="route_6" depart="121" />
<vehicle id="Car_84" type="MotorCycle" route="route_8" depart="121" />
<vehicle id="Car_85" type="Car" route="route_8" depart="121" />
<vehicle id="Car_86" type="MotorCycle" route="route_9" depart="125" />
<vehicle id="MotorCycle_87" type="MotorCycle" route="route_10" depart="135" />
<vehicle id="Bus_88" type="MotorCycle" route="route_2" depart="136" />
<vehicle id="Bus_89" type="MotorCycle" route="route_2" depart="143" />
<vehicle id="Auto_90" type="MotorCycle" route="route_8" depart="146" />
<vehicle id="Auto_91" type="MotorCycle" route="route_14" depart="149" />
<vehicle id="MotorCycle_92" type="MotorCycle" route="route_4" depart="156" />
<vehicle id="Auto_93" type="MotorCycle" route="route_3" depart="165" />
<vehicle id="MotorCycle_94" type="Auto" route="route_5" depart="171" />
<vehicle id="MotorCycle_95" type="MotorCycle" route="route_5" depart="171" />
<vehicle id="MotorCycle_96" type="Car" route="route_5" depart="171" />
<vehicle id="Car_97" type="MotorCycle" route="route_2" depart="172" />
<vehicle id="MotorCycle_98" type="MotorCycle" route="route_1" depart="173" />
<vehicle id="Car_99" type="MotorCycle" route="route_3" depart="173" />
<vehicle id="Auto_100" type="MotorCycle" route="route_9" depart="173" />
<vehicle id="Auto_101" type="Car" route="route_9" depart="173" />
<vehicle id="Car_102" type="MotorCycle" route="route_7" depart="174" />
<vehicle id="Bus_103" type="MotorCycle" route="route_1" depart="175" />
<vehicle id="MotorCycle_104" type="MotorCycle" route="route_7" depart="178" />
<vehicle id="Auto_105" type="MotorCycle" route="route_4" depart="185" />
<vehicle id="MotorCycle_106" type="Car" route="route_7" depart="188" />
<vehicle id="Car_107" type="MotorCycle" route="route_7" depart="189" />
<vehicle id="Auto_108" type="MotorCycle" route="route_3" depart="191" />
<vehicle id="Auto_109" type="Car" route="route_3" depart="191" />
<vehicle id="Bus_110" type="MotorCycle" route="route_1" depart="196" />
<vehicle id="Auto_111" type="MotorCycle" route="route_3" depart="207" />
<vehicle id="Car_112" type="MotorCycle" route="route_2" depart="217" />
<vehicle id="MotorCycle_113" type="MotorCycle" route="route_1" depart="219" />
<vehicle id="Car_114" type="MotorCycle" route="route_4" depart="223" />
<vehicle id="Car_115" type="Car" route="route_4" depart="223" />
<vehicle id="Car_116" type="MotorCycle" route="route_5" depart="230" />
<vehicle id="Car_117" type="Auto" route="route_2" depart="233" />
<vehicle id="Car_118" type="MotorCycle" route="route_2" depart="233" />
<vehicle id="Auto_119" type="MotorCycle" route="route_6" depart="234" />
<vehicle id="Bus_120" type="MotorCycle" route="route_7" depart="234" />
<vehicle id="Auto_121" type="Auto" route="route_7" depart="238" />
<vehicle id="Auto_122" type="MotorCycle" route="route_7" depart="238" />
<vehicle id="Car_123" type="MotorCycle" route="route_9" depart="238" />
<vehicle id="Car_124" type="Car" route="route_9" depart="238" />
<vehicle id="Bus_125" type="MotorCycle" route="route_1" depart="240" />
<vehicle id="Bus_126" type="MotorCycle" route="route_3" depart="240" />
<vehicle id="Car_127" type="MotorCycle" route="route_7" depart="245" />
<vehicle id="Bus_128" type="MotorCycle" route="route_6" depart="248" />
<vehicle id="MotorCycle_129" type="MotorCycle" route="route_6" depart="249" />
<vehicle id="MotorCycle_130" type="MotorCycle" route="route_7" depart="250" />
<vehicle id="MotorCycle_131" type="Car" route="route_7" depart="250" />
<vehicle id="Car_132" type="MotorCycle" route="route_1" depart="251" />
<vehicle id="Auto_133" type="MotorCycle" route="route_5" depart="253" />
<vehicle id="Auto_134" type="Auto" route="route_8" depart="254" />
<vehicle id="Car_135" type="Auto" route="route_4" depart="256" />
<vehicle id="Car_136" type="MotorCycle" route="route_4" depart="256" />
<vehicle id="Bus_137" type="MotorCycle" route="route_2" depart="265" />
<vehicle id="Auto_138" type="MotorCycle" route="route_10" depart="270" />
<vehicle id="Auto_139" type="MotorCycle" route="route_7" depart="273" />
<vehicle id="MotorCycle_140" type="Car" route="route_8" depart="276" />
<vehicle id="Bus_141" type="MotorCycle" route="route_3" depart="277" />
<vehicle id="Auto_142" type="MotorCycle" route="route_1" depart="280" />
<vehicle id="MotorCycle_143" type="MotorCycle" route="route_6" depart="287" />
<vehicle id="MotorCycle_144" type="MotorCycle" route="route_3" depart="292" />
<vehicle id="MotorCycle_145" type="Car" route="route_3" depart="292" />
<vehicle id="Car_146" type="MotorCycle" route="route_8" depart="297" />
<vehicle id="Car_147" type="MotorCycle" route="route_10" depart="301" />
<vehicle id="Car_148" type="MotorCycle" route="route_2" depart="303" />
<vehicle id="Car_149" type="Car" route="route_2" depart="303" />
<vehicle id="MotorCycle_150" type="MotorCycle" route="route_2" depart="305" />
<vehicle id="MotorCycle_151" type="Car" route="route_2" depart="305" />
<vehicle id="Bus_152" type="Car" route="route_8" depart="312" />
<vehicle id="Car_153" type="MotorCycle" route="route_9" depart="323" />
<vehicle id="MotorCycle_154" type="MotorCycle" route="route_4" depart="324" />
<vehicle id="MotorCycle_155" type="Car" route="route_4" depart="324" />
<vehicle id="Car_156" type="MotorCycle" route="route_7" depart="327" />
<vehicle id="MotorCycle_157" type="MotorCycle" route="route_8" depart="328" />
<vehicle id="MotorCycle_158" type="MotorCycle" route="route_10" depart="328" />
<vehicle id="MotorCycle_159" type="MotorCycle" route="route_1" depart="331" />
<vehicle id="Car_160" type="MotorCycle" route="route_3" depart="332" />
<vehicle id="Auto_161" type="MotorCycle" route="route_9" depart="334" />
<vehicle id="Auto_162" type="Car" route="route_9" depart="334" />
<vehicle id="MotorCycle_163" type="MotorCycle" route="route_8" depart="339" />
<vehicle id="MotorCycle_164" type="Car" route="route_3" depart="340" />
<vehicle id="Auto_165" type="MotorCycle" route="route_1" depart="343" />
<vehicle id="Car_166" type="MotorCycle" route="route_18" depart="343" />
<vehicle id="Auto_167" type="Car" route="route_8" depart="345" />
<vehicle id="MotorCycle_168" type="Car" route="route_6" depart="347" />
<vehicle id="Auto_169" type="MotorCycle" route="route_10" depart="347" />
<vehicle id="Bus_170" type="MotorCycle" route="route_2" depart="358" />
<vehicle id="MotorCycle_171" type="MotorCycle" route="route_1" depart="364" />
<vehicle id="MotorCycle_172" type="Car" route="route_1" depart="364" />
<vehicle id="MotorCycle_173" type="MotorCycle" route="route_4" depart="367" />
<vehicle id="MotorCycle_174" type="Car" route="route_4" depart="367" />
<vehicle id="Bus_175" type="MotorCycle" route="route_8" depart="376" />
<vehicle id="Bus_176" type="Car" route="route_8" depart="376" />
<vehicle id="MotorCycle_177" type="MotorCycle" route="route_1" depart="377" />
<vehicle id="MotorCycle_178" type="Car" route="route_1" depart="377" />
<vehicle id="MotorCycle_179" type="MotorCycle" route="route_9" depart="384" />
<vehicle id="Bus_180" type="MotorCycle" route="route_8" depart="387" />
<vehicle id="Car_181" type="MotorCycle" route="route_20" depart="393" />
<vehicle id="MotorCycle_182" type="MotorCycle" route="route_1" depart="398" />
<vehicle id="MotorCycle_183" type="Car" route="route_1" depart="398" />
<vehicle id="Bus_184" type="MotorCycle" route="route_4" depart="404" />
<vehicle id="Bus_185" type="MotorCycle" route="route_3" depart="413" />
<vehicle id="Bus_186" type="Car" route="route_3" depart="413" />
<vehicle id="Auto_187" type="MotorCycle" route="route_4" depart="418" />
<vehicle id="Car_188" type="MotorCycle" route="route_8" depart="424" />
<vehicle id="MotorCycle_189" type="MotorCycle" route="route_3" depart="429" />
<vehicle id="MotorCycle_190" type="MotorCycle" route="route_6" depart="435" />
<vehicle id="Bus_191" type="MotorCycle" route="route_4" depart="436" />
<vehicle id="Bus_192" type="Auto" route="route_4" depart="439" />
<vehicle id="Bus_193" type="MotorCycle" route="route_4" depart="439" />
<vehicle id="MotorCycle_194" type="MotorCycle" route="route_5" depart="443" />
<vehicle id="Car_195" type="MotorCycle" route="route_1" depart="446" />
<vehicle id="Car_196" type="MotorCycle" route="route_3" depart="446" />
<vehicle id="MotorCycle_197" type="MotorCycle" route="route_1" depart="450" />
<vehicle id="Bus_198" type="MotorCycle" route="route_2" depart="450" />
<vehicle id="Auto_199" type="MotorCycle" route="route_7" depart="451" />
<vehicle id="Auto_200" type="Car" route="route_7" depart="451" />
<vehicle id="MotorCycle_201" type="MotorCycle" route="route_8" depart="452" />
<vehicle id="MotorCycle_202" type="Car" route="route_8" depart="452" />
<vehicle id="Auto_203" type="MotorCycle" route="route_2" depart="453" />
<vehicle id="Car_204" type="MotorCycle" route="route_4" depart="453" />
<vehicle id="MotorCycle_205" type="MotorCycle" route="route_2" depart="454" />
<vehicle id="Car_206" type="MotorCycle" route="route_6" depart="454" />
<vehicle id="Bus_207" type="MotorCycle" route="route_7" depart="454" />
<vehicle id="Bus_208" type="Car" route="route_7" depart="454" />
<vehicle id="Car_209" type="MotorCycle" route="route_2" depart="455" />
<vehicle id="MotorCycle_210" type="MotorCycle" route="route_6" depart="455" />
<vehicle id="Auto_211" type="MotorCycle" route="route_1" depart="456" />
<vehicle id="Car_212" type="MotorCycle" route="route_2" depart="456" />
<vehicle id="Car_213" type="Car" route="route_2" depart="456" />
<vehicle id="Auto_214" type="MotorCycle" route="route_3" depart="456" />
<vehicle id="Bus_215" type="MotorCycle" route="route_9" depart="456" />
<vehicle id="Bus_216" type="Car" route="route_9" depart="456" />
<vehicle id="Auto_217" type="MotorCycle" route="route_2" depart="457" />
<vehicle id="Auto_218" type="MotorCycle" route="route_1" depart="458" />
<vehicle id="Auto_219" type="Car" route="route_1" depart="458" />
<vehicle id="Bus_220" type="MotorCycle" route="route_2" depart="458" />
<vehicle id="MotorCycle_221" type="MotorCycle" route="route_1" depart="459" />
<vehicle id="Bus_222" type="MotorCycle" route="route_2" depart="459" />
<vehicle id="Bus_223" type="Car" route="route_2" depart="459" />
<vehicle id="Bus_224" type="MotorCycle" route="route_1" depart="460" />
<vehicle id="Bus_225" type="Car" route="route_1" depart="460" />
<vehicle id="MotorCycle_226" type="MotorCycle" route="route_2" depart="460" />
<vehicle id="Auto_227" type="MotorCycle" route="route_8" depart="460" />
<vehicle id="MotorCycle_228" type="MotorCycle" route="route_2" depart="461" />
<vehicle id="MotorCycle_229" type="Car" route="route_2" depart="461" />
<vehicle id="MotorCycle_230" type="MotorCycle" route="route_1" depart="462" />
<vehicle id="MotorCycle_231" type="MotorCycle" route="route_2" depart="462" />
<vehicle id="Auto_232" type="MotorCycle" route="route_1" depart="464" />
<vehicle id="Bus_233" type="MotorCycle" route="route_2" depart="464" />
<vehicle id="MotorCycle_234" type="MotorCycle" route="route_3" depart="464" />
<vehicle id="MotorCycle_235" type="Car" route="route_3" depart="464" />
<vehicle id="Bus_236" type="MotorCycle" route="route_1" depart="465" />
<vehicle id="Car_237" type="MotorCycle" route="route_2" depart="465" />
<vehicle id="MotorCycle_238" type="MotorCycle" route="route_1" depart="466" />
<vehicle id="MotorCycle_239" type="Car" route="route_1" depart="466" />
<vehicle id="Bus_240" type="MotorCycle" route="route_2" depart="466" />
<vehicle id="Car_241" type="MotorCycle" route="route_3" depart="466" />
<vehicle id="Auto_242" type="MotorCycle" route="route_5" depart="466" />
<vehicle id="Auto_243" type="Car" route="route_5" depart="466" />
<vehicle id="Car_244" type="MotorCycle" route="route_10" depart="466" />
<vehicle id="Bus_245" type="MotorCycle" route="route_1" depart="467" />
<vehicle id="Bus_246" type="Car" route="route_1" depart="467" />
<vehicle id="Bus_247" type="MotorCycle" route="route_2" depart="467" />
<vehicle id="Bus_248" type="MotorCycle" route="route_4" depart="467" />
<vehicle id="Bus_249" type="Car" route="route_4" depart="467" />
<vehicle id="Bus_250" type="MotorCycle" route="route_1" depart="468" />
<vehicle id="Auto_251" type="MotorCycle" route="route_1" depart="469" />
<vehicle id="Auto_252" type="Car" route="route_1" depart="469" />
<vehicle id="Car_253" type="MotorCycle" route="route_2" depart="469" />
<vehicle id="Auto_254" type="MotorCycle" route="route_8" depart="469" />
<vehicle id="Auto_255" type="MotorCycle" route="route_1" depart="470" />
<vehicle id="Car_256" type="MotorCycle" route="route_2" depart="470" />
<vehicle id="Auto_257" type="MotorCycle" route="route_8" depart="470" />
<vehicle id="Bus_258" type="MotorCycle" route="route_1" depart="471" />
<vehicle id="Car_259" type="MotorCycle" route="route_1" depart="472" />
<vehicle id="Bus_260" type="MotorCycle" route="route_2" depart="472" />
<vehicle id="Auto_261" type="MotorCycle" route="route_3" depart="472" />
<vehicle id="Bus_262" type="MotorCycle" route="route_1" depart="474" />
<vehicle id="Bus_263" type="MotorCycle" route="route_8" depart="474" />
<vehicle id="Bus_264" type="MotorCycle" route="route_10" depart="474" />
<vehicle id="Bus_265" type="Car" route="route_10" depart="474" />
<vehicle id="MotorCycle_266" type="Auto" route="route_2" depart="475" />
<vehicle id="MotorCycle_267" type="MotorCycle" route="route_2" depart="475" />
<vehicle id="Auto_268" type="MotorCycle" route="route_10" depart="475" />
<vehicle id="MotorCycle_269" type="MotorCycle" route="route_1" depart="476" />
<vehicle id="Car_270" type="Auto" route="route_2" depart="476" />
<vehicle id="Car_271" type="MotorCycle" route="route_2" depart="476" />
<vehicle id="Car_272" type="MotorCycle" route="route_4" depart="476" />
<vehicle id="MotorCycle_273" type="MotorCycle" route="route_8" depart="476" />
<vehicle id="MotorCycle_274" type="Car" route="route_8" depart="476" />
<vehicle id="Car_275" type="MotorCycle" route="route_1" depart="477" />
<vehicle id="Car_276" type="Car" route="route_1" depart="477" />
<vehicle id="Car_277" type="MotorCycle" route="route_7" depart="477" />
<vehicle id="Bus_278" type="Auto" route="route_2" depart="478" />
<vehicle id="Bus_279" type="MotorCycle" route="route_2" depart="478" />
<vehicle id="MotorCycle_280" type="MotorCycle" route="route_8" depart="478" />
<vehicle id="Auto_281" type="MotorCycle" route="route_10" depart="478" />
<vehicle id="Car_282" type="MotorCycle" route="route_1" depart="479" />
<vehicle id="Car_283" type="Car" route="route_1" depart="479" />
<vehicle id="Car_284" type="MotorCycle" route="route_2" depart="479" />
<vehicle id="MotorCycle_285" type="MotorCycle" route="route_1" depart="480" />
<vehicle id="Bus_286" type="MotorCycle" route="route_2" depart="481" />
<vehicle id="MotorCycle_287" type="MotorCycle" route="route_1" depart="482" />
<vehicle id="MotorCycle_288" type="MotorCycle" route="route_2" depart="482" />
<vehicle id="Car_289" type="MotorCycle" route="route_7" depart="482" />
<vehicle id="Auto_290" type="MotorCycle" route="route_1" depart="483" />
<vehicle id="Car_291" type="Auto" route="route_6" depart="483" />
<vehicle id="Car_292" type="MotorCycle" route="route_6" depart="483" />
<vehicle id="Car_293" type="Car" route="route_6" depart="483" />
<vehicle id="Auto_294" type="MotorCycle" route="route_2" depart="484" />
<vehicle id="Car_295" type="MotorCycle" route="route_1" depart="485" />
<vehicle id="MotorCycle_296" type="MotorCycle" route="route_5" depart="485" />
<vehicle id="Auto_297" type="MotorCycle" route="route_4" depart="486" />
<vehicle id="MotorCycle_298" type="Car" route="route_7" depart="486" />
<vehicle id="MotorCycle_299" type="MotorCycle" route="route_1" depart="487" />
<vehicle id="Bus_300" type="MotorCycle" route="route_2" depart="487" />
<vehicle id="MotorCycle_301" type="MotorCycle" route="route_1" depart="488" />
<vehicle id="MotorCycle_302" type="MotorCycle" route="route_2" depart="488" />
<vehicle id="Auto_303" type="MotorCycle" route="route_9" depart="488" />
<vehicle id="Auto_304" type="MotorCycle" route="route_1" depart="489" />
<vehicle id="MotorCycle_305" type="MotorCycle" route="route_2" depart="489" />
<vehicle id="MotorCycle_306" type="Car" route="route_2" depart="489" />
<vehicle id="Auto_307" type="Auto" route="route_5" depart="489" />
<vehicle id="Auto_308" type="Car" route="route_5" depart="489" />
<vehicle id="Auto_309" type="MotorCycle" route="route_2" depart="490" />
<vehicle id="Auto_310" type="Auto" route="route_8" depart="490" />
<vehicle id="Auto_311" type="MotorCycle" route="route_8" depart="490" />
<vehicle id="Auto_312" type="MotorCycle" route="route_1" depart="491" />
<vehicle id="Auto_313" type="MotorCycle" route="route_2" depart="492" />
<vehicle id="Auto_314" type="MotorCycle" route="route_2" depart="493" />
<vehicle id="Auto_315" type="MotorCycle" route="route_9" depart="493" />
<vehicle id="MotorCycle_316" type="MotorCycle" route="route_2" depart="494" />
<vehicle id="Auto_317" type="MotorCycle" route="route_5" depart="494" />
<vehicle id="Auto_318" type="MotorCycle" route="route_8" depart="494" />
<vehicle id="Bus_319" type="MotorCycle" route="route_1" depart="495" />
<vehicle id="Bus_320" type="MotorCycle" route="route_2" depart="495" />
<vehicle id="Bus_321" type="Car" route="route_2" depart="495" />
<vehicle id="Car_322" type="Auto" route="route_5" depart="495" />
<vehicle id="Car_323" type="Car" route="route_5" depart="495" />
<vehicle id="Car_324" type="MotorCycle" route="route_1" depart="496" />
<vehicle id="Car_325" type="MotorCycle" route="route_2" depart="497" />
<vehicle id="Car_326" type="Car" route="route_2" depart="497" />
<vehicle id="MotorCycle_327" type="MotorCycle" route="route_1" depart="498" />
<vehicle id="Bus_328" type="MotorCycle" route="route_2" depart="499" />
<vehicle id="MotorCycle_329" type="MotorCycle" route="route_7" depart="504" />
<vehicle id="Bus_330" type="MotorCycle" route="route_2" depart="520" />
<vehicle id="Bus_331" type="Car" route="route_2" depart="520" />
<vehicle id="Car_332" type="MotorCycle" route="route_10" depart="520" />
<vehicle id="Car_333" type="Car" route="route_10" depart="520" />
<vehicle id="Bus_334" type="MotorCycle" route="route_6" depart="522" />
<vehicle id="Car_335" type="MotorCycle" route="route_6" depart="524" />
<vehicle id="Bus_336" type="MotorCycle" route="route_6" depart="529" />
<vehicle id="Car_337" type="MotorCycle" route="route_6" depart="533" />
<vehicle id="Auto_338" type="Auto" route="route_9" depart="540" />
<vehicle id="Auto_339" type="MotorCycle" route="route_9" depart="540" />
<vehicle id="Auto_340" type="Car" route="route_9" depart="540" />
<vehicle id="Car_341" type="Bus" route="route_8" depart="548" />
<vehicle id="Car_342" type="MotorCycle" route="route_8" depart="548" />
<vehicle id="Car_343" type="Car" route="route_8" depart="548" />
<vehicle id="Car_344" type="MotorCycle" route="route_3" depart="549" />
<vehicle id="MotorCycle_345" type="MotorCycle" route="route_1" depart="552" />
<vehicle id="MotorCycle_346" type="MotorCycle" route="route_2" depart="556" />
<vehicle id="Bus_347" type="MotorCycle" route="route_6" depart="557" />
<vehicle id="Bus_348" type="MotorCycle" route="route_2" depart="558" />
<vehicle id="MotorCycle_349" type="MotorCycle" route="route_1" depart="559" />
<vehicle id="MotorCycle_350" type="Car" route="route_1" depart="559" />
<vehicle id="Bus_351" type="MotorCycle" route="route_2" depart="563" />
<vehicle id="Auto_352" type="Auto" route="route_10" depart="563" />
<vehicle id="Auto_353" type="MotorCycle" route="route_10" depart="563" />
<vehicle id="Bus_354" type="MotorCycle" route="route_4" depart="584" />
<vehicle id="MotorCycle_355" type="MotorCycle" route="route_5" depart="584" />
<vehicle id="Bus_356" type="Auto" route="route_1" depart="596" />
<vehicle id="Bus_357" type="MotorCycle" route="route_1" depart="596" />
<vehicle id="MotorCycle_358" type="MotorCycle" route="route_2" depart="596" />
<vehicle id="Bus_359" type="MotorCycle" route="route_19" depart="597" />
<vehicle id="Car_360" type="MotorCycle" route="route_1" depart="602" />
<vehicle id="Auto_361" type="Auto" route="route_1" depart="606" />
<vehicle id="Auto_362" type="MotorCycle" route="route_1" depart="606" />
<vehicle id="MotorCycle_363" type="MotorCycle" route="route_3" depart="615" />
<vehicle id="Car_364" type="MotorCycle" route="route_4" depart="616" />
<vehicle id="Car_365" type="MotorCycle" route="route_9" depart="618" />
<vehicle id="Bus_366" type="MotorCycle" route="route_1" depart="620" />
<vehicle id="Bus_367" type="Car" route="route_1" depart="620" />
<vehicle id="Car_368" type="Auto" route="route_10" depart="622" />
<vehicle id="Car_369" type="MotorCycle" route="route_10" depart="622" />
<vehicle id="Car_370" type="Car" route="route_10" depart="622" />
<vehicle id="Auto_371" type="MotorCycle" route="route_4" depart="623" />
<vehicle id="Car_372" type="MotorCycle" route="route_4" depart="631" />
<vehicle id="Auto_373" type="MotorCycle" route="route_10" depart="646" />