<routes>
<vType id="Bus" accel="0.6" decel="3.5" sigma="0.5" length="10.1" minGap="1.0" maxSpeed="16.67" carFollowModel="Wiedemann" guiShape="bus" width="2.45" latAlignment="left" laneChangeModel="SL2015" lcStrategic="0.5" lcCooperative="0.0"/>
<vType id="Auto" accel="0.7" decel="4.5" sigma="0.5" length="2.6" minGap="0.3" maxSpeed="16" carFollowModel="Wiedemann" guiShape="passenger/sedan" width="1.25" latAlignment="left" laneChangeModel="SL2015" lcStrategic="0.5" lcCooperative="0.0" />
<vType id="MotorCycle" accel="0.9" decel="3.5" sigma="0.5" length="1.85" minGap="0.15"  carFollowModel="Wiedemann" maxSpeed="17" guiShape="motorcycle" width="0.7" latAlignment="left" laneChangeModel="SL2015" lcStrategic="0.5" lcCooperative="0.0"/>
<vType id="Car" accel="0.8" decel="4.5" sigma="0.5" length="3.6" minGap="0.5" maxSpeed="40" carFollowModel="Wiedemann" guiShape="passenger" width="1.5" latAlignment="left" laneChangeModel="SL2015" lcStrategic="0.5" lcCooperative="0.0"/>
<vType id="emergency" accel="2.8" decel="5.5" sigma="0.5" length="3.6" minGap="0.5" maxSpeed="120.6" carFollowModel="Wiedemann" guiShape="emergency" width="1.5" latAlignment="left" laneChangeModel="SL2015" lcStrategic="0.5" lcCooperative="0.0" vClass="emergency" speedFactor="1.9" jmDriveAfterRedTime="300" jmDriveAfterRedSpeed="5.56">
<param key="has.bluelight.device" value="true"/>
<param key="has.fcd.device" value="true"/> 
</vType>
	<route id="route_0" edges="78[0] 56a 56b 78[1][1]" />
	<route id="route_1" edges="78[0] 56a 56b 78[1][1] 189[0] 189[1][0]+20000 189[1][1] 188 87[0] 20001+87[1][0] 87[1][1] m90 89[0] 20002+89[1][0] 89[1][1] 91 186 109[0] 109[1][0]+20003 109[1][1] 116 46 134 134b -gneE0" />
        <route id="route_2" edges="gneE0 133 31 115 110 185 92 90 m91 88 187 190 77[0] 77[1][1] " />
        <route id="route_3" edges="78[0] 56a 56b 79 68 11 84" />
        <route id="route_4" edges="78[0] 56a 56b 21a 21b " /> 
        <route id="route_5" edges="75 77[0] 79 68 11 84 " />
        <route id="route_6" edges="75 77[0] 21a 21b" />
        <route id="route_7" edges="gneE0 133 31 201 201c 204a[0] " />
        <route id="route_8" edges="gneE0 133 31 113 209" />
        <route id="route_9" edges="119 116 46 113 209" />
        <route id="route_10" edges="119 116 46 201 201c 204a[0]" />
        <route id="route_11" edges="59" />
        <route id="route_12" edges="59" />
        <route id="route_13" edges="59" />
        <route id="route_14" edges="59" />
        <route id="route_15" edges="59" />
        <route id="route_16" edges="59" />
        <route id="route_17" edges="59" />
        <route id="route_18" edges="59" />
        <route id="route_19" edges="59" />
        <route id="route_20" edges="59" />
        <route id="route_21" edges="59" />
        <route id="route_22" edges="59" />
        <route id="route_23" edges="59" />

	<route id="route_24" edges="59"/>
<vehicle id="emergency_0" type="emergency" route="route_3" depart="0" />
<vehicle id="Bus_0" type="Bus" route="route_3" depart="0" />
<vehicle id="Car_0" type="Car" route="route_18" depart="0" />
<vehicle id="MotorCycle_1" type="Auto" route="route_2" depart="4" />
<vehicle id="MotorCycle_2" type="MotorCycle" route="route_2" depart="4" />
<vehicle id="Car_3" type="MotorCycle" route="route_1" depart="5" />
<vehicle id="Car_4" type="Car" route="route_1" depart="5" />
<vehicle id="MotorCycle_5" type="MotorCycle" route="route_2" depart="5" />
<vehicle id="Bus_6" type="MotorCycle" route="route_5" depart="6" />
<vehicle id="Bus_7" type="Car" route="route_5" depart="6" />
<vehicle id="MotorCycle_8" type="MotorCycle" route="route_1" depart="10" />
<vehicle id="MotorCycle_9" type="MotorCycle" route="route_5" depart="11" />
<vehicle id="MotorCycle_10" type="MotorCycle" route="route_2" depart="12" />
<vehicle id="Bus_11" type="MotorCycle" route="route_1" depart="14" />
<vehicle id="Car_12" type="MotorCycle" route="route_8" depart="16" />
<vehicle id="MotorCycle_13" type="MotorCycle" route="route_9" depart="18" />
<vehicle id="Auto_14" type="Auto" route="route_2" depart="19" />
<vehicle id="Auto_15" type="MotorCycle" route="route_2" depart="19" />
<vehicle id="Auto_16" type="MotorCycle" route="route_8" depart="20" />
<vehicle id="MotorCycle_17" type="Auto" route="route_9" depart="20" />
<vehicle id="Bus_18" type="MotorCycle" route="route_1" depart="21" />
<vehicle id="Bus_19" type="Car" route="route_1" depart="21" />
<vehicle id="Bus_20" type="Bus" route="route_4" depart="22" />
<vehicle id="Bus_21" type="MotorCycle" route="route_4" depart="22" />
<vehicle id="Bus_22" type="Car" route="route_4" depart="22" />
<vehicle id="Car_23" type="MotorCycle" route="route_1" depart="27" />
<vehicle id="Bus_24" type="MotorCycle" route="route_2" depart="27" />
<vehicle id="Bus_25" type="Car" route="route_2" depart="27" />
<vehicle id="Car_26" type="Auto" route="route_6" depart="27" />
<vehicle id="Car_27" type="MotorCycle" route="route_6" depart="27" />
<vehicle id="Auto_28" type="MotorCycle" route="route_2" depart="29" />
<vehicle id="Bus_29" type="MotorCycle" route="route_1" depart="30" />
<vehicle id="Car_30" type="MotorCycle" route="route_5" depart="30" />
<vehicle id="Car_31" type="Car" route="route_5" depart="30" />
<vehicle id="Auto_32" type="MotorCycle" route="route_1" depart="33" />
<vehicle id="Bus_33" type="MotorCycle" route="route_2" depart="33" />
<vehicle id="MotorCycle_34" type="MotorCycle" route="route_1" depart="35" />
<vehicle id="Car_35" type="MotorCycle" route="route_1" depart="37" />
<vehicle id="Car_36" type="Bus" route="route_2" depart="37" />
<vehicle id="Car_37" type="MotorCycle" route="route_2" depart="37" />
<vehicle id="Bus_38" type="MotorCycle" route="route_9" depart="37" />
<vehicle id="Bus_39" type="Car" route="route_9" depart="37" />
<vehicle id="Car_40" type="MotorCycle" route="route_2" depart="38" />
<vehicle id="Bus_41" type="Bus" route="route_2" depart="39" />
<vehicle id="Bus_42" type="MotorCycle" route="route_2" depart="39" />
<vehicle id="Auto_43" type="Auto" route="route_9" depart="39" />
<vehicle id="Auto_44" type="MotorCycle" route="route_9" depart="39" />
<vehicle id="Bus_45" type="MotorCycle" route="route_1" depart="41" />
<vehicle id="Auto_46" type="MotorCycle" route="route_3" depart="42" />
<vehicle id="MotorCycle_47" type="MotorCycle" route="route_1" depart="44" />
<vehicle id="Car_48" type="MotorCycle" route="route_2" depart="44" />
<vehicle id="Car_49" type="Car" route="route_2" depart="44" />
<vehicle id="Auto_50" type="MotorCycle" route="route_2" depart="46" />
<vehicle id="Car_51" type="MotorCycle" route="route_1" depart="49" />
<vehicle id="Auto_52" type="MotorCycle" route="route_8" depart="51" />
<vehicle id="MotorCycle_53" type="Auto" route="route_6" depart="53" />
<vehicle id="MotorCycle_54" type="MotorCycle" route="route_6" depart="53" />
<vehicle id="MotorCycle_55" type="Car" route="route_6" depart="53" />
<vehicle id="MotorCycle_56" type="Car" route="route_5" depart="54" />
<vehicle id="Auto_57" type="MotorCycle" route="route_5" depart="56" />
<vehicle id="Bus_58" type="MotorCycle" route="route_6" depart="63" />
<vehicle id="Auto_59" type="MotorCycle" route="route_8" depart="63" />
<vehicle id="MotorCycle_60" type="MotorCycle" route="route_6" depart="64" />
<vehicle id="MotorCycle_61" type="MotorCycle" route="route_1" depart="68" />
<vehicle id="Auto_62" type="Auto" route="route_9" depart="69" />
<vehicle id="Auto_63" type="MotorCycle" route="route_9" depart="69" />
<vehicle id="Bus_64" type="MotorCycle" route="route_7" depart="75" />
<vehicle id="Bus_65" type="Car" route="route_7" depart="75" />
<vehicle id="MotorCycle_66" type="MotorCycle" route="route_2" depart="81" />
<vehicle id="MotorCycle_67" type="MotorCycle" route="route_9" depart="81" />
<vehicle id="Car_68" type="MotorCycle" route="route_2" depart="82" />
<vehicle id="Bus_69" type="MotorCycle" route="route_1" depart="85" />
<vehicle id="Auto_70" type="MotorCycle" route="route_5" depart="86" />
<vehicle id="Car_71" type="MotorCycle" route="route_5" depart="89" />
<vehicle id="Car_72" type="MotorCycle" route="route_5" depart="90" />
<vehicle id="Car_73" type="Car" route="route_5" depart="90" />
<vehicle id="Bus_74" type="Auto" route="route_5" depart="94" />
<vehicle id="Bus_75" type="MotorCycle" route="route_5" depart="94" />
<vehicle id="Bus_76" type="Car" route="route_5" depart="94" />
<vehicle id="Auto_77" type="Auto" route="route_5" depart="96" />
<vehicle id="Auto_78" type="MotorCycle" route="route_5" depart="96" />
<vehicle id="Auto_79" type="MotorCycle" route="route_9" depart="96" />
<vehicle id="MotorCycle_80" type="MotorCycle" route="route_10" depart="96" />
<vehicle id="MotorCycle_81" type="Car" route="route_10" depart="96" />
<vehicle id="MotorCycle_82" type="MotorCycle" route="route_5" depart="97" />
<vehicle id="Car_83" type="MotorCycle" route="route_4" depart="101" />
<vehicle id="Car_84" type="Car" route="route_4" depart="101" />
<vehicle id="MotorCycle_85" type="MotorCycle" route="route_8" depart="103" />
<vehicle id="Car_86" type="MotorCycle" route="route_9" depart="103" />
<vehicle id="Car_87" type="Car" route="route_9" depart="103" />
<vehicle id="Car_88" type="Car" route="route_7" depart="108" />
<vehicle id="Auto_89" type="MotorCycle" route="route_3" depart="117" />
<vehicle id="Car_90" type="MotorCycle" route="route_1" depart="121" />
<vehicle id="Car_91" type="Car" route="route_1" depart="121" />
<vehicle id="MotorCycle_92" type="MotorCycle" route="route_6" depart="129" />
<vehicle id="Bus_93" type="MotorCycle" route="route_10" depart="132" />
<vehicle id="Bus_94" type="Car" route="route_10" depart="132" />
<vehicle id="Bus_95" type="MotorCycle" route="route_9" depart="140" />
<vehicle id="MotorCycle_96" type="Car" route="route_8" depart="154" />
<vehicle id="Car_97" type="MotorCycle" route="route_3" depart="158" />
<vehicle id="Auto_98" type="MotorCycle" route="route_1" depart="163" />
<vehicle id="Car_99" type="MotorCycle" route="route_9" depart="167" />
<vehicle id="MotorCycle_100" type="MotorCycle" route="route_1" depart="178" />
<vehicle id="Bus_101" type="MotorCycle" route="route_4" depart="181" />
<vehicle id="Auto_102" type="MotorCycle" route="route_1" depart="183" />
<vehicle id="MotorCycle_103" type="MotorCycle" route="route_10" depart="185" />
<vehicle id="Auto_104" type="Car" route="route_1" depart="187" />
<vehicle id="Bus_105" type="MotorCycle" route="route_4" depart="190" />
<vehicle id="Auto_106" type="MotorCycle" route="route_8" depart="190" />
<vehicle id="Bus_107" type="MotorCycle" route="route_9" depart="191" />
<vehicle id="Bus_108" type="MotorCycle" route="route_8" depart="193" />
<vehicle id="Bus_109" type="Car" route="route_8" depart="193" />
<vehicle id="Auto_110" type="MotorCycle" route="route_4" depart="196" />
<vehicle id="MotorCycle_111" type="MotorCycle" route="route_1" depart="197" />
<vehicle id="Car_112" type="MotorCycle" route="route_3" depart="197" />
<vehicle id="Car_113" type="Car" route="route_3" depart="197" />
<vehicle id="Car_114" type="MotorCycle" route="route_3" depart="201" />
<vehicle id="MotorCycle_115" type="MotorCycle" route="route_1" depart="202" />
<vehicle id="Car_116" type="Auto" route="route_2" depart="207" />
<vehicle id="Car_117" type="MotorCycle" route="route_2" depart="207" />
<vehicle id="MotorCycle_118" type="MotorCycle" route="route_3" depart="209" />
<vehicle id="Car_119" type="MotorCycle" route="route_2" depart="213" />
<vehicle id="MotorCycle_120" type="MotorCycle" route="route_3" depart="213" />
<vehicle id="MotorCycle_121" type="MotorCycle" route="route_8" depart="215" />
<vehicle id="Bus_122" type="MotorCycle" route="route_1" depart="218" />
<vehicle id="Bus_123" type="Car" route="route_1" depart="218" />
<vehicle id="Car_124" type="MotorCycle" route="route_1" depart="219" />
<vehicle id="MotorCycle_125" type="MotorCycle" route="route_3" depart="224" />
<vehicle id="Auto_126" type="MotorCycle" route="route_10" depart="225" />
<vehicle id="Auto_127" type="Car" route="route_10" depart="225" />
<vehicle id="Bus_128" type="MotorCycle" route="route_2" depart="227" />
<vehicle id="MotorCycle_129" type="MotorCycle" route="route_2" depart="228" />
<vehicle id="MotorCycle_130" type="Car" route="route_2" depart="228" />
<vehicle id="Car_131" type="Auto" route="route_5" depart="231" />
<vehicle id="Car_132" type="MotorCycle" route="route_5" depart="231" />
<vehicle id="Car_133" type="MotorCycle" route="route_7" depart="235" />
<vehicle id="Car_134" type="MotorCycle" route="route_3" depart="236" />
<vehicle id="Auto_135" type="MotorCycle" route="route_4" depart="237" />
<vehicle id="Bus_136" type="MotorCycle" route="route_9" depart="237" />
<vehicle id="Bus_137" type="Car" route="route_9" depart="237" />
<vehicle id="Bus_138" type="MotorCycle" route="route_7" depart="241" />
<vehicle id="Car_139" type="MotorCycle" route="route_6" depart="242" />
<vehicle id="MotorCycle_140" type="MotorCycle" route="route_6" depart="244" />
<vehicle id="Auto_141" type="MotorCycle" route="route_2" depart="250" />
<vehicle id="MotorCycle_142" type="MotorCycle" route="route_3" depart="265" />
<vehicle id="Bus_143" type="MotorCycle" route="route_6" depart="267" />
<vehicle id="Auto_144" type="MotorCycle" route="route_5" depart="268" />
<vehicle id="Auto_145" type="Car" route="route_5" depart="268" />
<vehicle id="Bus_146" type="MotorCycle" route="route_6" depart="268" />
<vehicle id="Car_147" type="MotorCycle" route="route_9" depart="280" />
<vehicle id="Auto_148" type="MotorCycle" route="route_4" depart="282" />
<vehicle id="Auto_149" type="MotorCycle" route="route_2" depart="284" />
<vehicle id="Bus_150" type="MotorCycle" route="route_8" depart="304" />
<vehicle id="Car_151" type="Car" route="route_4" depart="306" />
<vehicle id="Bus_152" type="MotorCycle" route="route_2" depart="308" />
<vehicle id="Auto_153" type="Auto" route="route_1" depart="309" />
<vehicle id="Auto_154" type="MotorCycle" route="route_1" depart="309" />
<vehicle id="MotorCycle_155" type="Auto" route="route_3" depart="313" />
<vehicle id="MotorCycle_156" type="MotorCycle" route="route_3" depart="313" />
<vehicle id="MotorCycle_157" type="Car" route="route_3" depart="313" />
<vehicle id="MotorCycle_158" type="MotorCycle" route="route_5" depart="313" />
<vehicle id="MotorCycle_159" type="MotorCycle" route="route_1" depart="319" />
<vehicle id="MotorCycle_160" type="MotorCycle" route="route_21" depart="319" />
<vehicle id="MotorCycle_161" type="MotorCycle" route="route_1" depart="320" />
<vehicle id="MotorCycle_162" type="Car" route="route_1" depart="320" />
<vehicle id="MotorCycle_163" type="MotorCycle" route="route_5" depart="322" />
<vehicle id="Auto_164" type="Car" route="route_3" depart="323" />
<vehicle id="Bus_165" type="MotorCycle" route="route_1" depart="324" />
<vehicle id="Car_166" type="MotorCycle" route="route_5" depart="324" />
<vehicle id="Bus_167" type="MotorCycle" route="route_4" depart="329" />
<vehicle id="Bus_168" type="MotorCycle" route="route_8" depart="330" />
<vehicle id="Auto_169" type="MotorCycle" route="route_3" depart="334" />
<vehicle id="Auto_170" type="Car" route="route_3" depart="334" />
<vehicle id="Auto_171" type="Bus" route="route_5" depart="334" />
<vehicle id="Auto_172" type="Car" route="route_5" depart="334" />
<vehicle id="Auto_173" type="MotorCycle" route="route_10" depart="334" />
<vehicle id="Bus_174" type="MotorCycle" route="route_2" depart="335" />
<vehicle id="MotorCycle_175" type="Car" route="route_5" depart="335" />
<vehicle id="Bus_176" type="Auto" route="route_7" depart="336" />
<vehicle id="Bus_177" type="MotorCycle" route="route_7" depart="336" />
<vehicle id="MotorCycle_178" type="MotorCycle" route="route_8" depart="340" />
<vehicle id="MotorCycle_179" type="Car" route="route_8" depart="340" />
<vehicle id="Auto_180" type="MotorCycle" route="route_2" depart="344" />
<vehicle id="Car_181" type="MotorCycle" route="route_6" depart="347" />
<vehicle id="Car_182" type="Car" route="route_6" depart="347" />
<vehicle id="Car_183" type="MotorCycle" route="route_2" depart="348" />
<vehicle id="Auto_184" type="MotorCycle" route="route_8" depart="353" />
<vehicle id="Auto_185" type="Car" route="route_8" depart="353" />
<vehicle id="MotorCycle_186" type="MotorCycle" route="route_9" depart="357" />
<vehicle id="Bus_187" type="MotorCycle" route="route_2" depart="373" />
<vehicle id="Auto_188" type="Auto" route="route_1" depart="376" />
<vehicle id="Auto_189" type="MotorCycle" route="route_1" depart="376" />
<vehicle id="MotorCycle_190" type="MotorCycle" route="route_5" depart="376" />
<vehicle id="Car_191" type="MotorCycle" route="route_8" depart="376" />
<vehicle id="Bus_192" type="Auto" route="route_9" depart="381" />
<vehicle id="MotorCycle_193" type="MotorCycle" route="route_2" depart="383" />
<vehicle id="Car_194" type="Auto" route="route_1" depart="386" />
<vehicle id="Car_195" type="MotorCycle" route="route_1" depart="386" />
<vehicle id="Car_196" type="Car" route="route_1" depart="386" />
<vehicle id="Car_197" type="MotorCycle" route="route_2" depart="389" />
<vehicle id="Car_198" type="Car" route="route_2" depart="389" />
<vehicle id="Bus_199" type="MotorCycle" route="route_1" depart="392" />
<vehicle id="Bus_200" type="Car" route="route_1" depart="392" />
<vehicle id="Car_201" type="MotorCycle" route="route_8" depart="395" />
<vehicle id="Auto_202" type="MotorCycle" route="route_9" depart="395" />
<vehicle id="Car_203" type="MotorCycle" route="route_1" depart="399" />
<vehicle id="Car_204" type="MotorCycle" route="route_8" depart="401" />
<vehicle id="Auto_205" type="MotorCycle" route="route_1" depart="403" />
<vehicle id="MotorCycle_206" type="MotorCycle" route="route_2" depart="407" />
<vehicle id="MotorCycle_207" type="MotorCycle" route="route_2" depart="411" />
<vehicle id="MotorCycle_208" type="Car" route="route_2" depart="411" />
<vehicle id="Car_209" type="MotorCycle" route="route_4" depart="417" />
<vehicle id="MotorCycle_210" type="MotorCycle" route="route_7" depart="422" />
<vehicle id="MotorCycle_211" type="Car" route="route_7" depart="422" />
<vehicle id="Auto_212" type="MotorCycle" route="route_1" depart="424" />
<vehicle id="Car_213" type="MotorCycle" route="route_1" depart="427" />
<vehicle id="Bus_214" type="MotorCycle" route="route_7" depart="441" />
<vehicle id="Car_215" type="MotorCycle" route="route_1" depart="445" />
<vehicle id="MotorCycle_216" type="MotorCycle" route="route_7" depart="449" />
<vehicle id="Car_217" type="Auto" route="route_1" depart="450" />
<vehicle id="Car_218" type="MotorCycle" route="route_1" depart="450" />
<vehicle id="Car_219" type="MotorCycle" route="route_2" depart="450" />
<vehicle id="MotorCycle_220" type="MotorCycle" route="route_7" depart="450" />
<vehicle id="MotorCycle_221" type="MotorCycle" route="route_1" depart="452" />
<vehicle id="Bus_222" type="MotorCycle" route="route_2" depart="452" />
<vehicle id="Bus_223" type="MotorCycle" route="route_1" depart="453" />
<vehicle id="Car_224" type="MotorCycle" route="route_2" depart="453" />
<vehicle id="Car_225" type="Car" route="route_2" depart="453" />
<vehicle id="Auto_226" type="MotorCycle" route="route_1" depart="455" />
<vehicle id="Auto_227" type="MotorCycle" route="route_2" depart="455" />
<vehicle id="Auto_228" type="MotorCycle" route="route_1" depart="456" />
<vehicle id="Bus_229" type="Car" route="route_3" depart="456" />
<vehicle id="MotorCycle_230" type="MotorCycle" route="route_6" depart="456" />
<vehicle id="Bus_231" type="MotorCycle" route="route_1" depart="457" />
<vehicle id="Car_232" type="MotorCycle" route="route_2" depart="457" />
<vehicle id="Car_233" type="MotorCycle" route="route_6" depart="457" />
<vehicle id="MotorCycle_234" type="MotorCycle" route="route_1" depart="458" />
<vehicle id="Bus_235" type="MotorCycle" route="route_1" depart="460" />
<vehicle id="Auto_236" type="MotorCycle" route="route_3" depart="460" />
<vehicle id="Auto_237" type="MotorCycle" route="route_9" depart="460" />
<vehicle id="Auto_238" type="Auto" route="route_1" depart="461" />
<vehicle id="Auto_239" type="MotorCycle" route="route_1" depart="461" />
<vehicle id="MotorCycle_240" type="MotorCycle" route="route_2" depart="461" />
<vehicle id="MotorCycle_241" type="Car" route="route_2" depart="461" />
<vehicle id="Bus_242" type="MotorCycle" route="route_1" depart="462" />
<vehicle id="Car_243" type="Car" route="route_1" depart="463" />
<vehicle id="Bus_244" type="MotorCycle" route="route_2" depart="463" />
<vehicle id="MotorCycle_245" type="MotorCycle" route="route_2" depart="464" />
<vehicle id="Auto_246" type="MotorCycle" route="route_3" depart="464" />
<vehicle id="Car_247" type="MotorCycle" route="route_9" depart="464" />
<vehicle id="MotorCycle_248" type="MotorCycle" route="route_10" depart="464" />
<vehicle id="Auto_249" type="MotorCycle" route="route_1" depart="465" />
<vehicle id="Car_250" type="MotorCycle" route="route_7" depart="465" />
<vehicle id="Car_251" type="MotorCycle" route="route_8" depart="465" />
<vehicle id="Auto_252" type="MotorCycle" route="route_3" depart="466" />
<vehicle id="MotorCycle_253" type="Bus" route="route_1" depart="467" />
<vehicle id="MotorCycle_254" type="Auto" route="route_3" depart="467" />
<vehicle id="MotorCycle_255" type="MotorCycle" route="route_3" depart="467" />
<vehicle id="Auto_256" type="MotorCycle" route="route_1" depart="468" />
<vehicle id="Bus_257" type="MotorCycle" route="route_2" depart="468" />
<vehicle id="Bus_258" type="MotorCycle" route="route_5" depart="468" />
<vehicle id="Auto_259" type="MotorCycle" route="route_6" depart="468" />
<vehicle id="MotorCycle_260" type="MotorCycle" route="route_7" depart="468" />
<vehicle id="Bus_261" type="Bus" route="route_2" depart="469" />
<vehicle id="Bus_262" type="MotorCycle" route="route_2" depart="469" />
<vehicle id="MotorCycle_263" type="MotorCycle" route="route_7" depart="469" />
<vehicle id="MotorCycle_264" type="MotorCycle" route="route_1" depart="470" />
<vehicle id="MotorCycle_265" type="MotorCycle" route="route_6" depart="470" />
<vehicle id="MotorCycle_266" type="Car" route="route_1" depart="471" />
<vehicle id="Auto_267" type="MotorCycle" route="route_2" depart="471" />
<vehicle id="Car_268" type="MotorCycle" route="route_5" depart="471" />
<vehicle id="Auto_269" type="MotorCycle" route="route_9" depart="471" />
<vehicle id="MotorCycle_270" type="MotorCycle" route="route_1" depart="472" />
<vehicle id="Bus_271" type="MotorCycle" route="route_2" depart="472" />
<vehicle id="Bus_272" type="Car" route="route_2" depart="472" />
<vehicle id="Auto_273" type="MotorCycle" route="route_2" depart="473" />
<vehicle id="Bus_274" type="MotorCycle" route="route_1" depart="474" />
<vehicle id="Auto_275" type="MotorCycle" route="route_2" depart="474" />
<vehicle id="Auto_276" type="Car" route="route_2" depart="474" />
<vehicle id="Car_277" type="Auto" route="route_1" depart="475" />
<vehicle id="Car_278" type="Auto" route="route_2" depart="475" />
<vehicle id="Car_279" type="MotorCycle" route="route_1" depart="476" />
<vehicle id="Bus_280" type="MotorCycle" route="route_10" depart="476" />
<vehicle id="Car_281" type="MotorCycle" route="route_1" depart="477" />
<vehicle id="Car_282" type="Car" route="route_1" depart="477" />
<vehicle id="Bus_283" type="MotorCycle" route="route_3" depart="477" />
<vehicle id="Bus_284" type="MotorCycle" route="route_15" depart="477" />
<vehicle id="MotorCycle_285" type="MotorCycle" route="route_2" depart="478" />
<vehicle id="MotorCycle_286" type="MotorCycle" route="route_6" depart="478" />
<vehicle id="MotorCycle_287" type="Car" route="route_6" depart="478" />
<vehicle id="Bus_288" type="MotorCycle" route="route_1" depart="479" />
<vehicle id="Car_289" type="Bus" route="route_2" depart="479" />
<vehicle id="Car_290" type="MotorCycle" route="route_2" depart="479" />
<vehicle id="Bus_291" type="MotorCycle" route="route_4" depart="479" />
<vehicle id="MotorCycle_292" type="MotorCycle" route="route_1" depart="480" />
<vehicle id="Bus_293" type="MotorCycle" route="route_2" depart="480" />
<vehicle id="Bus_294" type="Auto" route="route_9" depart="480" />
<vehicle id="Bus_295" type="MotorCycle" route="route_9" depart="480" />
<vehicle id="Car_296" type="MotorCycle" route="route_1" depart="481" />
<vehicle id="MotorCycle_297" type="MotorCycle" route="route_3" depart="481" />
<vehicle id="Auto_298" type="MotorCycle" route="route_8" depart="482" />
<vehicle id="Car_299" type="MotorCycle" route="route_1" depart="483" />
<vehicle id="Car_300" type="MotorCycle" route="route_2" depart="483" />
<vehicle id="MotorCycle_301" type="MotorCycle" route="route_6" depart="483" />
<vehicle id="Car_302" type="MotorCycle" route="route_1" depart="484" />
<vehicle id="Bus_303" type="MotorCycle" route="route_2" depart="484" />
<vehicle id="Auto_304" type="Auto" route="route_2" depart="485" />
<vehicle id="Auto_305" type="MotorCycle" route="route_2" depart="485" />
<vehicle id="Auto_306" type="MotorCycle" route="route_3" depart="485" />
<vehicle id="Bus_307" type="MotorCycle" route="route_1" depart="486" />
<vehicle id="Auto_308" type="MotorCycle" route="route_2" depart="486" />
<vehicle id="MotorCycle_309" type="MotorCycle" route="route_1" depart="487" />
<vehicle id="MotorCycle_310" type="MotorCycle" route="route_1" depart="488" />
<vehicle id="Bus_311" type="Auto" route="route_1" depart="489" />
<vehicle id="Car_312" type="MotorCycle" route="route_4" depart="490" />
<vehicle id="Car_313" type="MotorCycle" route="route_1" depart="491" />
<vehicle id="Auto_314" type="MotorCycle" route="route_2" depart="491" />
<vehicle id="Car_315" type="MotorCycle" route="route_1" depart="492" />
<vehicle id="Car_316" type="Car" route="route_1" depart="492" />
<vehicle id="Car_317" type="MotorCycle" route="route_2" depart="492" />
<vehicle id="Car_318" type="MotorCycle" route="route_1" depart="493" />
<vehicle id="MotorCycle_319" type="MotorCycle" route="route_2" depart="493" />
<vehicle id="MotorCycle_320" type="MotorCycle" route="route_2" depart="494" />
<vehicle id="MotorCycle_321" type="MotorCycle" route="route_6" depart="495" />
<vehicle id="Bus_322" type="MotorCycle" route="route_9" depart="495" />
<vehicle id="MotorCycle_323" type="MotorCycle" route="route_1" depart="496" />
<vehicle id="MotorCycle_324" type="MotorCycle" route="route_2" depart="496" />
<vehicle id="Auto_325" type="MotorCycle" route="route_2" depart="498" />
<vehicle id="Auto_326" type="MotorCycle" route="route_4" depart="498" />
<vehicle id="Car_327" type="MotorCycle" route="route_1" depart="499" />
<vehicle id="MotorCycle_328" type="MotorCycle" route="route_2" depart="499" />
<vehicle id="Bus_329" type="MotorCycle" route="route_3" depart="502" />
<vehicle id="Car_330" type="MotorCycle" route="route_2" depart="508" />
<vehicle id="Car_331" type="Car" route="route_2" depart="508" />
<vehicle id="Auto_332" type="MotorCycle" route="route_2" depart="514" />
<vehicle id="Auto_333" type="MotorCycle" route="route_9" depart="521" />
<vehicle id="MotorCycle_334" type="Car" route="route_6" depart="524" />
<vehicle id="Bus_335" type="Auto" route="route_3" depart="527" />
<vehicle id="Auto_336" type="MotorCycle" route="route_9" depart="528" />
<vehicle id="Auto_337" type="Car" route="route_9" depart="528" />
<vehicle id="Car_338" type="MotorCycle" route="route_5" depart="529" />
<vehicle id="MotorCycle_339" type="MotorCycle" route="route_6" depart="536" />
<vehicle id="MotorCycle_340" type="MotorCycle" route="route_23" depart="538" />
<vehicle id="Car_341" type="MotorCycle" route="route_10" depart="540" />
<vehicle id="Bus_342" type="MotorCycle" route="route_1" depart="543" />
<vehicle id="Bus_343" type="Bus" route="route_8" depart="543" />
<vehicle id="Bus_344" type="MotorCycle" route="route_8" depart="543" />
<vehicle id="Auto_345" type="MotorCycle" route="route_5" depart="546" />
<vehicle id="Auto_346" type="Car" route="route_5" depart="546" />
<vehicle id="MotorCycle_347" type="MotorCycle" route="route_4" depart="547" />
<vehicle id="Auto_348" type="MotorCycle" route="route_10" depart="547" />
<vehicle id="Car_349" type="MotorCycle" route="route_4" depart="551" />
<vehicle id="Car_350" type="MotorCycle" route="route_1" depart="554" />
<vehicle id="Car_351" type="MotorCycle" route="route_4" depart="560" />
<vehicle id="MotorCycle_352" type="MotorCycle" route="route_8" depart="564" />
<vehicle id="MotorCycle_353" type="MotorCycle" route="route_3" depart="584" />
<vehicle id="Car_354" type="MotorCycle" route="route_3" depart="589" />
<vehicle id="Car_355" type="Car" route="route_3" depart="589" />
<vehicle id="Car_356" type="MotorCycle" route="route_1" depart="592" />
<vehicle id="Bus_357" type="MotorCycle" route="route_7" depart="593" />
<vehicle id="MotorCycle_358" type="MotorCycle" route="route_8" depart="594" />
<vehicle id="Auto_359" type="MotorCycle" route="route_1" depart="602" />
<vehicle id="Auto_360" type="MotorCycle" route="route_2" depart="602" />
<vehicle id="Auto_361" type="Car" route="route_2" depart="602" />
<vehicle id="Bus_362" type="Auto" route="route_1" depart="606" />
<vehicle id="Bus_363" type="MotorCycle" route="route_1" depart="606" />
<vehicle id="Bus_364" type="MotorCycle" route="route_10" depart="606" />
<vehicle id="MotorCycle_365" type="MotorCycle" route="route_8" depart="610" />
<vehicle id="MotorCycle_366" type="Car" route="route_8" depart="610" />
<vehicle id="Car_367" type="Auto" route="route_2" depart="613" />
<vehicle id="Car_368" type="MotorCycle" route="route_2" depart="613" />
<vehicle id="Bus_369" type="Auto" route="route_10" depart="624" />
<vehicle id="Bus_370" type="MotorCycle" route="route_10" depart="624" />
<vehicle id="Bus_371" type="MotorCycle" route="route_4" depart="632" />
<vehicle id="Bus_372" type="Car" route="route_4" depart="632" />
<vehicle id="Bus_373" type="MotorCycle" route="route_7" depart="632" />
<vehicle id="Auto_374" type="Bus" route="route_6" depart="635" />