<routes>
<vType id="Bus" accel="0.6" decel="3.5" sigma="0.5" length="10.1" minGap="1.0" maxSpeed="16.67" carFollowModel="Wiedemann" guiShape="bus" width="2.45" latAlignment="left" laneChangeModel="SL2015" lcStrategic="0.5" lcCooperative="0.0"/>
<vType id="Auto" accel="0.7" decel="4.5" sigma="0.5" length="2.6" minGap="0.3" maxSpeed="16" carFollowModel="Wiedemann" guiShape="passenger/sedan" width="1.25" latAlignment="left" laneChangeModel="SL2015" lcStrategic="0.5" lcCooperative="0.0" />
<vType id="MotorCycle" accel="0.9" decel="3.5" sigma="0.5" length="1.85" minGap="0.15"  carFollowModel="Wiedemann" maxSpeed="17" guiShape="motorcycle" width="0.7" latAlignment="left" laneChangeModel="SL2015" lcStrategic="0.5" lcCooperative="0.0"/>
<vType id="Car" accel="0.8" decel="4.5" sigma="0.5" length="3.6" minGap="0.5" maxSpeed="40" carFollowModel="Wiedemann" guiShape="passenger" width="1.5" latAlignment="left" laneChangeModel="SL2015" lcStrategic="0.5" lcCooperative="0.0"/>
<vType id="emergency" accel="2.8" decel="5.5" sigma="0.5" length="3.6" minGap="0.5" maxSpeed="120.6" carFollowModel="Wiedemann" guiShape="emergency" width="1.5" latAlignment="left" laneChangeModel="SL2015" lcStrategic="0.5" lcCooperative="0.0" vClass="emergency" speedFactor="1.9" jmDriveAfterRedTime="300" jmDriveAfterRedSpeed="5.56">
<param key="has.bluelight.device" value="true"/>
<param key="has.fcd.device" value="true"/> 
</vType>
	<route id="route_0" edges="78[0] 56a 56b 78[1][1]" />
	<route id="route_1" edges="78[0] 56a 56b 78[1][1] 189[0] 189[1][0]+20000 189[1][1] 188 87[0] 20001+87[1][0] 87[1][1] m90 89[0] 20002+89[1][0] 89[1][1] 91 186 109[0] 109[1][0]+20003 109[1][1] 116 46 134 134b -gneE0" />
        <route id="route_2" edges="gneE0 133 31 115 110 185 92 90 m91 88 187 190 77[0] 77[1][1] " />
        <route id="route_3" edges="78[0] 56a 56b 79 68 11 84" />
        <route id="route_4" edges="78[0] 56a 56b 21a 21b " /> 
        <route id="route_5" edges="75 77[0] 79 68 11 84 " />
        <route id="route_6" edges="75 77[0] 21a 21b" />
        <route id="route_7" edges="gneE0 133 31 201 201c 204a[0] " />
        <route id="route_8" edges="gneE0 133 31 113 209" />
        <route id="route_9" edges="119 116 46 113 209" />
        <route id="route_10" edges="119 116 46 201 201c 204a[0]" />
        <route id="route_11" edges="59" />
        <route id="route_12" edges="59" />
        <route id="route_13" edges="59" />
        <route id="route_14" edges="59" />
        <route id="route_15" edges="59" />
        <route id="route_16" edges="59" />
        <route id="route_17" edges="59" />
        <route id="route_18" edges="59" />
        <route id="route_19" edges="59" />
        <route id="route_20" edges="59" />
        <route id="route_21" edges="59" />
        <route id="route_22" edges="59" />
        <route id="route_23" edges="59" />

	<route id="route_24" edges="59"/>
<vehicle id="emergency_0" type="emergency" route="route_3" depart="0" />
<vehicle id="Bus_0" type="Bus" route="route_3" depart="0" />
<vehicle id="Car_0" type="Car" route="route_11" depart="0" />
<vehicle id="Auto_1" type="MotorCycle" route="route_9" depart="1" />
<vehicle id="Auto_2" type="Car" route="route_9" depart="1" />
<vehicle id="Auto_3" type="MotorCycle" route="route_1" depart="2" />
<vehicle id="Car_4" type="MotorCycle" route="route_2" depart="6" />
<vehicle id="Bus_5" type="MotorCycle" route="route_7" depart="6" />
<vehicle id="Car_6" type="MotorCycle" route="route_2" depart="8" />
<vehicle id="MotorCycle_7" type="MotorCycle" route="route_8" depart="9" />
<vehicle id="Auto_8" type="MotorCycle" route="route_2" depart="10" />
<vehicle id="Bus_9" type="MotorCycle" route="route_8" depart="10" />
<vehicle id="MotorCycle_10" type="MotorCycle" route="route_2" depart="12" />
<vehicle id="Car_11" type="MotorCycle" route="route_5" depart="12" />
<vehicle id="Car_12" type="Car" route="route_5" depart="12" />
<vehicle id="Car_13" type="MotorCycle" route="route_5" depart="15" />
<vehicle id="Auto_14" type="MotorCycle" route="route_4" depart="16" />
<vehicle id="Auto_15" type="Car" route="route_4" depart="16" />
<vehicle id="Auto_16" type="MotorCycle" route="route_1" depart="17" />
<vehicle id="Bus_17" type="MotorCycle" route="route_1" depart="18" />
<vehicle id="MotorCycle_18" type="Car" route="route_2" depart="18" />
<vehicle id="MotorCycle_19" type="MotorCycle" route="route_3" depart="19" />
<vehicle id="Car_20" type="MotorCycle" route="route_1" depart="20" />
<vehicle id="Bus_21" type="MotorCycle" route="route_8" depart="20" />
<vehicle id="Bus_22" type="Car" route="route_8" depart="20" />
<vehicle id="MotorCycle_23" type="MotorCycle" route="route_3" depart="25" />
<vehicle id="Car_24" type="MotorCycle" route="route_2" depart="29" />
<vehicle id="Auto_25" type="MotorCycle" route="route_3" depart="31" />
<vehicle id="Auto_26" type="MotorCycle" route="route_8" depart="33" />
<vehicle id="Car_27" type="MotorCycle" route="route_9" depart="34" />
<vehicle id="Car_28" type="MotorCycle" route="route_2" depart="35" />
<vehicle id="MotorCycle_29" type="MotorCycle" route="route_2" depart="36" />
<vehicle id="MotorCycle_30" type="Bus" route="route_1" depart="37" />
<vehicle id="MotorCycle_31" type="MotorCycle" route="route_1" depart="37" />
<vehicle id="Car_32" type="MotorCycle" route="route_1" depart="38" />
<vehicle id="Car_33" type="MotorCycle" route="route_1" depart="39" />
<vehicle id="Bus_34" type="MotorCycle" route="route_5" depart="39" />
<vehicle id="Bus_35" type="MotorCycle" route="route_4" depart="42" />
<vehicle id="Car_36" type="MotorCycle" route="route_4" depart="43" />
<vehicle id="MotorCycle_37" type="MotorCycle" route="route_1" depart="44" />
<vehicle id="MotorCycle_38" type="MotorCycle" route="route_2" depart="44" />
<vehicle id="Auto_39" type="MotorCycle" route="route_3" depart="44" />
<vehicle id="Auto_40" type="MotorCycle" route="route_8" depart="44" />
<vehicle id="Car_41" type="MotorCycle" route="route_1" depart="45" />
<vehicle id="Auto_42" type="MotorCycle" route="route_6" depart="45" />
<vehicle id="Auto_43" type="MotorCycle" route="route_2" depart="46" />
<vehicle id="Car_44" type="MotorCycle" route="route_3" depart="46" />
<vehicle id="Auto_45" type="MotorCycle" route="route_9" depart="55" />
<vehicle id="Bus_46" type="MotorCycle" route="route_2" depart="59" />
<vehicle id="Car_47" type="MotorCycle" route="route_7" depart="65" />
<vehicle id="Car_48" type="Car" route="route_7" depart="65" />
<vehicle id="Car_49" type="MotorCycle" route="route_9" depart="67" />
<vehicle id="Car_50" type="Car" route="route_9" depart="67" />
<vehicle id="MotorCycle_51" type="MotorCycle" route="route_1" depart="68" />
<vehicle id="MotorCycle_52" type="MotorCycle" route="route_5" depart="68" />
<vehicle id="Bus_53" type="MotorCycle" route="route_1" depart="69" />
<vehicle id="Bus_54" type="MotorCycle" route="route_4" depart="79" />
<vehicle id="Auto_55" type="MotorCycle" route="route_6" depart="82" />
<vehicle id="Auto_56" type="Car" route="route_6" depart="82" />
<vehicle id="Bus_57" type="Bus" route="route_10" depart="82" />
<vehicle id="Bus_58" type="Car" route="route_10" depart="82" />
<vehicle id="MotorCycle_59" type="MotorCycle" route="route_1" depart="91" />
<vehicle id="MotorCycle_60" type="MotorCycle" route="route_3" depart="91" />
<vehicle id="Auto_61" type="MotorCycle" route="route_6" depart="92" />
<vehicle id="Bus_62" type="MotorCycle" route="route_7" depart="96" />
<vehicle id="Auto_63" type="MotorCycle" route="route_7" depart="99" />
<vehicle id="MotorCycle_64" type="MotorCycle" route="route_1" depart="101" />
<vehicle id="Car_65" type="Bus" route="route_4" depart="108" />
<vehicle id="Car_66" type="MotorCycle" route="route_4" depart="108" />
<vehicle id="MotorCycle_67" type="MotorCycle" route="route_7" depart="108" />
<vehicle id="Bus_68" type="Car" route="route_3" depart="111" />
<vehicle id="MotorCycle_69" type="Bus" route="route_3" depart="114" />
<vehicle id="MotorCycle_70" type="MotorCycle" route="route_3" depart="114" />
<vehicle id="Car_71" type="MotorCycle" route="route_5" depart="116" />
<vehicle id="Auto_72" type="MotorCycle" route="route_1" depart="117" />
<vehicle id="Auto_73" type="Car" route="route_1" depart="117" />
<vehicle id="MotorCycle_74" type="Bus" route="route_3" depart="117" />
<vehicle id="Car_75" type="MotorCycle" route="route_9" depart="119" />
<vehicle id="Auto_76" type="MotorCycle" route="route_2" depart="127" />
<vehicle id="Bus_77" type="MotorCycle" route="route_1" depart="129" />
<vehicle id="Bus_78" type="Car" route="route_1" depart="129" />
<vehicle id="Bus_79" type="MotorCycle" route="route_3" depart="137" />
<vehicle id="Car_80" type="MotorCycle" route="route_1" depart="139" />
<vehicle id="MotorCycle_81" type="MotorCycle" route="route_4" depart="140" />
<vehicle id="Bus_82" type="MotorCycle" route="route_9" depart="153" />
<vehicle id="MotorCycle_83" type="MotorCycle" route="route_1" depart="154" />
<vehicle id="Bus_84" type="MotorCycle" route="route_10" depart="159" />
<vehicle id="MotorCycle_85" type="MotorCycle" route="route_7" depart="170" />
<vehicle id="MotorCycle_86" type="MotorCycle" route="route_10" depart="170" />
<vehicle id="MotorCycle_87" type="MotorCycle" route="route_5" depart="173" />
<vehicle id="MotorCycle_88" type="Car" route="route_5" depart="173" />
<vehicle id="MotorCycle_89" type="Auto" route="route_4" depart="176" />
<vehicle id="MotorCycle_90" type="MotorCycle" route="route_4" depart="176" />
<vehicle id="MotorCycle_91" type="MotorCycle" route="route_3" depart="185" />
<vehicle id="Car_92" type="MotorCycle" route="route_2" depart="189" />
<vehicle id="Car_93" type="Car" route="route_2" depart="189" />
<vehicle id="Auto_94" type="MotorCycle" route="route_2" depart="190" />
<vehicle id="Auto_95" type="Bus" route="route_5" depart="198" />
<vehicle id="Car_96" type="MotorCycle" route="route_4" depart="203" />
<vehicle id="Bus_97" type="MotorCycle" route="route_1" depart="211" />
<vehicle id="Auto_98" type="MotorCycle" route="route_7" depart="217" />
<vehicle id="Bus_99" type="MotorCycle" route="route_1" depart="219" />
<vehicle id="MotorCycle_100" type="MotorCycle" route="route_9" depart="223" />
<vehicle id="MotorCycle_101" type="MotorCycle" route="route_6" depart="224" />
<vehicle id="MotorCycle_102" type="MotorCycle" route="route_9" depart="224" />
<vehicle id="Auto_103" type="MotorCycle" route="route_4" depart="227" />
<vehicle id="MotorCycle_104" type="MotorCycle" route="route_3" depart="229" />
<vehicle id="MotorCycle_105" type="Car" route="route_3" depart="229" />
<vehicle id="Car_106" type="MotorCycle" route="route_2" depart="231" />
<vehicle id="MotorCycle_107" type="MotorCycle" route="route_5" depart="231" />
<vehicle id="MotorCycle_108" type="Car" route="route_5" depart="231" />
<vehicle id="Auto_109" type="MotorCycle" route="route_1" depart="232" />
<vehicle id="Bus_110" type="Car" route="route_2" depart="233" />
<vehicle id="Bus_111" type="Auto" route="route_7" depart="236" />
<vehicle id="Bus_112" type="Car" route="route_7" depart="236" />
<vehicle id="Bus_113" type="MotorCycle" route="route_3" depart="243" />
<vehicle id="Bus_114" type="MotorCycle" route="route_9" depart="243" />
<vehicle id="MotorCycle_115" type="MotorCycle" route="route_5" depart="247" />
<vehicle id="Auto_116" type="MotorCycle" route="route_10" depart="247" />
<vehicle id="Car_117" type="MotorCycle" route="route_10" depart="250" />
<vehicle id="Car_118" type="Car" route="route_10" depart="250" />
<vehicle id="Bus_119" type="MotorCycle" route="route_8" depart="254" />
<vehicle id="Car_120" type="MotorCycle" route="route_9" depart="264" />
<vehicle id="Bus_121" type="Car" route="route_3" depart="267" />
<vehicle id="Bus_122" type="MotorCycle" route="route_2" depart="269" />
<vehicle id="Bus_123" type="Car" route="route_2" depart="269" />
<vehicle id="Car_124" type="MotorCycle" route="route_1" depart="278" />
<vehicle id="Car_125" type="Car" route="route_1" depart="278" />
<vehicle id="Car_126" type="MotorCycle" route="route_3" depart="280" />
<vehicle id="MotorCycle_127" type="MotorCycle" route="route_2" depart="282" />
<vehicle id="Auto_128" type="MotorCycle" route="route_2" depart="285" />
<vehicle id="MotorCycle_129" type="MotorCycle" route="route_9" depart="285" />
<vehicle id="Bus_130" type="MotorCycle" route="route_9" depart="289" />
<vehicle id="Auto_131" type="MotorCycle" route="route_1" depart="294" />
<vehicle id="MotorCycle_132" type="MotorCycle" route="route_2" depart="297" />
<vehicle id="Bus_133" type="MotorCycle" route="route_3" depart="302" />
<vehicle id="Car_134" type="MotorCycle" route="route_6" depart="306" />
<vehicle id="Bus_135" type="Auto" route="route_10" depart="307" />
<vehicle id="Bus_136" type="MotorCycle" route="route_3" depart="309" />
<vehicle id="Car_137" type="MotorCycle" route="route_2" depart="311" />
<vehicle id="MotorCycle_138" type="Auto" route="route_1" depart="316" />
<vehicle id="Auto_139" type="Car" route="route_1" depart="319" />
<vehicle id="Bus_140" type="MotorCycle" route="route_6" depart="320" />
<vehicle id="Bus_141" type="MotorCycle" route="route_3" depart="321" />
<vehicle id="MotorCycle_142" type="MotorCycle" route="route_8" depart="322" />
<vehicle id="MotorCycle_143" type="MotorCycle" route="route_2" depart="327" />
<vehicle id="MotorCycle_144" type="Car" route="route_2" depart="327" />
<vehicle id="Car_145" type="MotorCycle" route="route_7" depart="330" />
<vehicle id="Auto_146" type="MotorCycle" route="route_8" depart="334" />
<vehicle id="Auto_147" type="MotorCycle" route="route_9" depart="337" />
<vehicle id="MotorCycle_148" type="MotorCycle" route="route_5" depart="338" />
<vehicle id="MotorCycle_149" type="MotorCycle" route="route_9" depart="357" />
<vehicle id="MotorCycle_150" type="MotorCycle" route="route_1" depart="364" />
<vehicle id="MotorCycle_151" type="Car" route="route_1" depart="364" />
<vehicle id="Auto_152" type="MotorCycle" route="route_2" depart="367" />
<vehicle id="MotorCycle_153" type="MotorCycle" route="route_9" depart="368" />
<vehicle id="MotorCycle_154" type="MotorCycle" route="route_9" depart="372" />
<vehicle id="MotorCycle_155" type="MotorCycle" route="route_9" depart="376" />
<vehicle id="Car_156" type="MotorCycle" route="route_2" depart="380" />
<vehicle id="Car_157" type="Car" route="route_2" depart="380" />
<vehicle id="MotorCycle_158" type="Auto" route="route_5" depart="381" />
<vehicle id="MotorCycle_159" type="MotorCycle" route="route_5" depart="381" />
<vehicle id="MotorCycle_160" type="MotorCycle" route="route_1" depart="383" />
<vehicle id="Bus_161" type="MotorCycle" route="route_9" depart="384" />
<vehicle id="Car_162" type="MotorCycle" route="route_9" depart="387" />
<vehicle id="Bus_163" type="MotorCycle" route="route_7" depart="393" />
<vehicle id="Car_164" type="MotorCycle" route="route_4" depart="396" />
<vehicle id="Car_165" type="Car" route="route_4" depart="396" />
<vehicle id="Auto_166" type="MotorCycle" route="route_2" depart="398" />
<vehicle id="Auto_167" type="Car" route="route_2" depart="398" />
<vehicle id="Bus_168" type="MotorCycle" route="route_1" depart="409" />
<vehicle id="Bus_169" type="Bus" route="route_2" depart="409" />
<vehicle id="Bus_170" type="Auto" route="route_2" depart="409" />
<vehicle id="Bus_171" type="MotorCycle" route="route_2" depart="409" />
<vehicle id="Auto_172" type="Bus" route="route_3" depart="410" />
<vehicle id="Auto_173" type="MotorCycle" route="route_3" depart="410" />
<vehicle id="Auto_174" type="Car" route="route_3" depart="410" />
<vehicle id="Car_175" type="MotorCycle" route="route_4" depart="411" />
<vehicle id="Bus_176" type="MotorCycle" route="route_17" depart="411" />
<vehicle id="Bus_177" type="MotorCycle" route="route_10" depart="415" />
<vehicle id="MotorCycle_178" type="MotorCycle" route="route_2" depart="419" />
<vehicle id="MotorCycle_179" type="MotorCycle" route="route_5" depart="420" />
<vehicle id="Car_180" type="Car" route="route_2" depart="421" />
<vehicle id="Car_181" type="MotorCycle" route="route_6" depart="424" />
<vehicle id="Car_182" type="MotorCycle" route="route_3" depart="428" />
<vehicle id="Auto_183" type="MotorCycle" route="route_5" depart="430" />
<vehicle id="Car_184" type="MotorCycle" route="route_8" depart="432" />
<vehicle id="Bus_185" type="MotorCycle" route="route_1" depart="434" />
<vehicle id="Car_186" type="MotorCycle" route="route_1" depart="438" />
<vehicle id="Auto_187" type="MotorCycle" route="route_3" depart="441" />
<vehicle id="Auto_188" type="MotorCycle" route="route_2" depart="443" />
<vehicle id="Bus_189" type="MotorCycle" route="route_1" depart="447" />
<vehicle id="MotorCycle_190" type="MotorCycle" route="route_4" depart="449" />
<vehicle id="MotorCycle_191" type="Car" route="route_4" depart="449" />
<vehicle id="MotorCycle_192" type="MotorCycle" route="route_2" depart="450" />
<vehicle id="Car_193" type="MotorCycle" route="route_9" depart="450" />
<vehicle id="Car_194" type="Car" route="route_9" depart="450" />
<vehicle id="MotorCycle_195" type="MotorCycle" route="route_1" depart="451" />
<vehicle id="MotorCycle_196" type="MotorCycle" route="route_2" depart="451" />
<vehicle id="Auto_197" type="MotorCycle" route="route_7" depart="451" />
<vehicle id="Car_198" type="MotorCycle" route="route_10" depart="451" />
<vehicle id="Car_199" type="Car" route="route_10" depart="451" />
<vehicle id="Car_200" type="MotorCycle" route="route_2" depart="452" />
<vehicle id="Auto_201" type="MotorCycle" route="route_2" depart="453" />
<vehicle id="Bus_202" type="MotorCycle" route="route_2" depart="454" />
<vehicle id="Bus_203" type="MotorCycle" route="route_6" depart="454" />
<vehicle id="MotorCycle_204" type="MotorCycle" route="route_10" depart="454" />
<vehicle id="MotorCycle_205" type="Car" route="route_10" depart="454" />
<vehicle id="Car_206" type="MotorCycle" route="route_1" depart="455" />
<vehicle id="Car_207" type="MotorCycle" route="route_2" depart="455" />
<vehicle id="MotorCycle_208" type="MotorCycle" route="route_2" depart="456" />
<vehicle id="Auto_209" type="MotorCycle" route="route_2" depart="458" />
<vehicle id="MotorCycle_210" type="MotorCycle" route="route_9" depart="458" />
<vehicle id="Car_211" type="MotorCycle" route="route_1" depart="459" />
<vehicle id="MotorCycle_212" type="MotorCycle" route="route_2" depart="459" />
<vehicle id="MotorCycle_213" type="Car" route="route_2" depart="459" />
<vehicle id="Bus_214" type="MotorCycle" route="route_3" depart="459" />
<vehicle id="Bus_215" type="Car" route="route_3" depart="459" />
<vehicle id="Auto_216" type="MotorCycle" route="route_6" depart="459" />
<vehicle id="Bus_217" type="MotorCycle" route="route_1" depart="460" />
<vehicle id="Bus_218" type="Car" route="route_1" depart="460" />
<vehicle id="Car_219" type="MotorCycle" route="route_2" depart="460" />
<vehicle id="Car_220" type="Car" route="route_2" depart="460" />
<vehicle id="Auto_221" type="MotorCycle" route="route_4" depart="460" />
<vehicle id="Auto_222" type="MotorCycle" route="route_1" depart="461" />
<vehicle id="Car_223" type="Auto" route="route_2" depart="461" />
<vehicle id="Car_224" type="MotorCycle" route="route_2" depart="461" />
<vehicle id="MotorCycle_225" type="MotorCycle" route="route_3" depart="461" />
<vehicle id="MotorCycle_226" type="Car" route="route_3" depart="461" />
<vehicle id="Bus_227" type="MotorCycle" route="route_1" depart="462" />
<vehicle id="Auto_228" type="MotorCycle" route="route_2" depart="462" />
<vehicle id="MotorCycle_229" type="MotorCycle" route="route_1" depart="463" />
<vehicle id="MotorCycle_230" type="Car" route="route_1" depart="463" />
<vehicle id="Auto_231" type="MotorCycle" route="route_2" depart="463" />
<vehicle id="Car_232" type="MotorCycle" route="route_6" depart="463" />
<vehicle id="Car_233" type="MotorCycle" route="route_1" depart="465" />
<vehicle id="MotorCycle_234" type="Car" route="route_2" depart="465" />
<vehicle id="MotorCycle_235" type="MotorCycle" route="route_3" depart="465" />
<vehicle id="Car_236" type="MotorCycle" route="route_4" depart="465" />
<vehicle id="Car_237" type="MotorCycle" route="route_1" depart="466" />
<vehicle id="Car_238" type="Car" route="route_2" depart="466" />
<vehicle id="Auto_239" type="MotorCycle" route="route_5" depart="466" />
<vehicle id="Car_240" type="MotorCycle" route="route_1" depart="467" />
<vehicle id="Auto_241" type="Auto" route="route_2" depart="467" />
<vehicle id="Auto_242" type="MotorCycle" route="route_2" depart="467" />
<vehicle id="Auto_243" type="MotorCycle" route="route_1" depart="468" />
<vehicle id="Auto_244" type="MotorCycle" route="route_2" depart="468" />
<vehicle id="Auto_245" type="Car" route="route_2" depart="468" />
<vehicle id="Auto_246" type="MotorCycle" route="route_8" depart="468" />
<vehicle id="Auto_247" type="MotorCycle" route="route_10" depart="468" />
<vehicle id="Car_248" type="MotorCycle" route="route_1" depart="469" />
<vehicle id="Car_249" type="Car" route="route_1" depart="469" />
<vehicle id="Bus_250" type="MotorCycle" route="route_2" depart="469" />
<vehicle id="Bus_251" type="MotorCycle" route="route_1" depart="470" />
<vehicle id="MotorCycle_252" type="MotorCycle" route="route_2" depart="470" />
<vehicle id="MotorCycle_253" type="Car" route="route_2" depart="470" />
<vehicle id="Car_254" type="Bus" route="route_6" depart="470" />
<vehicle id="Car_255" type="MotorCycle" route="route_6" depart="470" />
<vehicle id="Car_256" type="MotorCycle" route="route_5" depart="471" />
<vehicle id="MotorCycle_257" type="MotorCycle" route="route_6" depart="471" />
<vehicle id="MotorCycle_258" type="MotorCycle" route="route_1" depart="472" />
<vehicle id="Car_259" type="MotorCycle" route="route_2" depart="472" />
<vehicle id="Car_260" type="MotorCycle" route="route_4" depart="472" />
<vehicle id="Car_261" type="MotorCycle" route="route_7" depart="472" />
<vehicle id="Auto_262" type="MotorCycle" route="route_1" depart="473" />
<vehicle id="Auto_263" type="MotorCycle" route="route_2" depart="473" />
<vehicle id="MotorCycle_264" type="MotorCycle" route="route_1" depart="474" />
<vehicle id="MotorCycle_265" type="MotorCycle" route="route_2" depart="474" />
<vehicle id="Auto_266" type="Auto" route="route_1" depart="475" />
<vehicle id="Auto_267" type="MotorCycle" route="route_7" depart="475" />
<vehicle id="Bus_268" type="MotorCycle" route="route_10" depart="475" />
<vehicle id="Bus_269" type="MotorCycle" route="route_2" depart="476" />
<vehicle id="Bus_270" type="Car" route="route_2" depart="476" />
<vehicle id="Bus_271" type="MotorCycle" route="route_3" depart="476" />
<vehicle id="Bus_272" type="MotorCycle" route="route_4" depart="476" />
<vehicle id="Car_273" type="MotorCycle" route="route_10" depart="477" />
<vehicle id="MotorCycle_274" type="MotorCycle" route="route_1" depart="478" />
<vehicle id="MotorCycle_275" type="Car" route="route_1" depart="478" />
<vehicle id="MotorCycle_276" type="MotorCycle" route="route_2" depart="478" />
<vehicle id="Auto_277" type="MotorCycle" route="route_3" depart="478" />
<vehicle id="Auto_278" type="Car" route="route_3" depart="478" />
<vehicle id="Bus_279" type="MotorCycle" route="route_1" depart="479" />
<vehicle id="Bus_280" type="Car" route="route_1" depart="479" />
<vehicle id="Car_281" type="MotorCycle" route="route_2" depart="479" />
<vehicle id="Auto_282" type="MotorCycle" route="route_10" depart="479" />
<vehicle id="MotorCycle_283" type="Auto" route="route_1" depart="480" />
<vehicle id="MotorCycle_284" type="MotorCycle" route="route_1" depart="480" />
<vehicle id="Auto_285" type="Car" route="route_5" depart="480" />
<vehicle id="Bus_286" type="Auto" route="route_1" depart="483" />
<vehicle id="Bus_287" type="MotorCycle" route="route_1" depart="483" />
<vehicle id="Bus_288" type="Car" route="route_1" depart="483" />
<vehicle id="Car_289" type="Bus" route="route_2" depart="483" />
<vehicle id="Car_290" type="MotorCycle" route="route_2" depart="483" />
<vehicle id="Car_291" type="MotorCycle" route="route_10" depart="483" />
<vehicle id="Car_292" type="Car" route="route_10" depart="483" />
<vehicle id="MotorCycle_293" type="MotorCycle" route="route_1" depart="484" />
<vehicle id="MotorCycle_294" type="MotorCycle" route="route_2" depart="484" />
<vehicle id="Bus_295" type="MotorCycle" route="route_3" depart="484" />
<vehicle id="Auto_296" type="MotorCycle" route="route_8" depart="484" />
<vehicle id="Bus_297" type="MotorCycle" route="route_1" depart="485" />
<vehicle id="Bus_298" type="Car" route="route_1" depart="485" />
<vehicle id="Car_299" type="MotorCycle" route="route_2" depart="485" />
<vehicle id="Car_300" type="Car" route="route_2" depart="485" />
<vehicle id="Bus_301" type="Auto" route="route_9" depart="485" />
<vehicle id="Bus_302" type="Car" route="route_9" depart="485" />
<vehicle id="Bus_303" type="Bus" route="route_1" depart="486" />
<vehicle id="Bus_304" type="MotorCycle" route="route_1" depart="486" />
<vehicle id="Car_305" type="MotorCycle" route="route_2" depart="486" />
<vehicle id="Auto_306" type="MotorCycle" route="route_7" depart="486" />
<vehicle id="Auto_307" type="MotorCycle" route="route_1" depart="487" />
<vehicle id="Auto_308" type="Auto" route="route_2" depart="487" />
<vehicle id="Auto_309" type="MotorCycle" route="route_2" depart="487" />
<vehicle id="MotorCycle_310" type="MotorCycle" route="route_1" depart="488" />
<vehicle id="Car_311" type="MotorCycle" route="route_2" depart="488" />
<vehicle id="Bus_312" type="MotorCycle" route="route_5" depart="488" />
<vehicle id="Bus_313" type="MotorCycle" route="route_1" depart="489" />
<vehicle id="MotorCycle_314" type="MotorCycle" route="route_1" depart="490" />
<vehicle id="MotorCycle_315" type="Car" route="route_1" depart="490" />
<vehicle id="Car_316" type="MotorCycle" route="route_2" depart="490" />
<vehicle id="Car_317" type="MotorCycle" route="route_1" depart="491" />
<vehicle id="Auto_318" type="MotorCycle" route="route_2" depart="491" />
<vehicle id="MotorCycle_319" type="MotorCycle" route="route_2" depart="492" />
<vehicle id="Car_320" type="Car" route="route_1" depart="493" />
<vehicle id="Auto_321" type="MotorCycle" route="route_7" depart="493" />
<vehicle id="Car_322" type="MotorCycle" route="route_1" depart="494" />
<vehicle id="Car_323" type="MotorCycle" route="route_2" depart="495" />
<vehicle id="Auto_324" type="Car" route="route_1" depart="496" />
<vehicle id="Bus_325" type="MotorCycle" route="route_1" depart="497" />
<vehicle id="Bus_326" type="Car" route="route_1" depart="497" />
<vehicle id="Car_327" type="MotorCycle" route="route_5" depart="497" />
<vehicle id="Auto_328" type="MotorCycle" route="route_7" depart="497" />
<vehicle id="Bus_329" type="MotorCycle" route="route_1" depart="498" />
<vehicle id="Bus_330" type="Car" route="route_1" depart="498" />
<vehicle id="Bus_331" type="MotorCycle" route="route_2" depart="498" />
<vehicle id="Bus_332" type="Car" route="route_2" depart="498" />
<vehicle id="Auto_333" type="MotorCycle" route="route_4" depart="498" />
<vehicle id="Auto_334" type="Car" route="route_4" depart="498" />
<vehicle id="MotorCycle_335" type="MotorCycle" route="route_6" depart="498" />
<vehicle id="MotorCycle_336" type="MotorCycle" route="route_2" depart="499" />
<vehicle id="MotorCycle_337" type="MotorCycle" route="route_9" depart="505" />
<vehicle id="Car_338" type="MotorCycle" route="route_10" depart="520" />
<vehicle id="Car_339" type="MotorCycle" route="route_10" depart="522" />
<vehicle id="Car_340" type="Auto" route="route_1" depart="523" />
<vehicle id="Car_341" type="MotorCycle" route="route_1" depart="523" />
<vehicle id="Car_342" type="MotorCycle" route="route_3" depart="525" />
<vehicle id="MotorCycle_343" type="MotorCycle" route="route_10" depart="528" />
<vehicle id="Bus_344" type="MotorCycle" route="route_8" depart="531" />
<vehicle id="MotorCycle_345" type="MotorCycle" route="route_2" depart="537" />
<vehicle id="MotorCycle_346" type="Car" route="route_2" depart="537" />
<vehicle id="Auto_347" type="MotorCycle" route="route_3" depart="538" />
<vehicle id="Auto_348" type="Car" route="route_3" depart="538" />
<vehicle id="Auto_349" type="MotorCycle" route="route_6" depart="539" />
<vehicle id="Auto_350" type="Car" route="route_2" depart="541" />
<vehicle id="Bus_351" type="MotorCycle" route="route_7" depart="541" />
<vehicle id="Car_352" type="MotorCycle" route="route_5" depart="542" />
<vehicle id="Auto_353" type="MotorCycle" route="route_5" depart="552" />
<vehicle id="Bus_354" type="MotorCycle" route="route_2" depart="557" />
<vehicle id="Car_355" type="MotorCycle" route="route_21" depart="558" />
<vehicle id="Bus_356" type="MotorCycle" route="route_1" depart="562" />
<vehicle id="Car_357" type="MotorCycle" route="route_4" depart="567" />
<vehicle id="Car_358" type="Car" route="route_4" depart="567" />
<vehicle id="Bus_359" type="MotorCycle" route="route_8" depart="568" />
<vehicle id="Bus_360" type="Car" route="route_8" depart="568" />
<vehicle id="MotorCycle_361" type="MotorCycle" route="route_6" depart="571" />
<vehicle id="MotorCycle_362" type="Auto" route="route_1" depart="584" />
<vehicle id="MotorCycle_363" type="MotorCycle" route="route_1" depart="584" />
<vehicle id="Car_364" type="Bus" route="route_7" depart="584" />
<vehicle id="Car_365" type="MotorCycle" route="route_7" depart="584" />
<vehicle id="MotorCycle_366" type="MotorCycle" route="route_9" depart="589" />
<vehicle id="Bus_367" type="MotorCycle" route="route_1" depart="590" />
<vehicle id="Car_368" type="MotorCycle" route="route_7" depart="595" />
<vehicle id="Car_369" type="MotorCycle" route="route_10" depart="598" />
<vehicle id="Auto_370" type="MotorCycle" route="route_1" depart="600" />
<vehicle id="Bus_371" type="MotorCycle" route="route_3" depart="600" />
<vehicle id="Car_372" type="MotorCycle" route="route_5" depart="603" />
<vehicle id="Car_373" type="Car" route="route_5" depart="603" />
<vehicle id="Bus_374" type="MotorCycle" route="route_9" depart="606" />