<routes>
<vType id="Bus" accel="0.6" decel="3.5" sigma="0.5" length="10.1" minGap="1.0" maxSpeed="16.67" carFollowModel="Wiedemann" guiShape="bus" width="2.45" latAlignment="left" laneChangeModel="SL2015" lcStrategic="0.5" lcCooperative="0.0"/>
<vType id="Auto" accel="0.7" decel="4.5" sigma="0.5" length="2.6" minGap="0.3" maxSpeed="16" carFollowModel="Wiedemann" guiShape="passenger/sedan" width="1.25" latAlignment="left" laneChangeModel="SL2015" lcStrategic="0.5" lcCooperative="0.0" />
<vType id="MotorCycle" accel="0.9" decel="3.5" sigma="0.5" length="1.85" minGap="0.15"  carFollowModel="Wiedemann" maxSpeed="17" guiShape="motorcycle" width="0.7" latAlignment="left" laneChangeModel="SL2015" lcStrategic="0.5" lcCooperative="0.0"/>
<vType id="Car" accel="0.8" decel="4.5" sigma="0.5" length="3.6" minGap="0.5" maxSpeed="40" carFollowModel="Wiedemann" guiShape="passenger" width="1.5" latAlignment="left" laneChangeModel="SL2015" lcStrategic="0.5" lcCooperative="0.0"/>
<vType id="emergency" accel="2.8" decel="5.5" sigma="0.5" length="3.6" minGap="0.5" maxSpeed="120.6" carFollowModel="Wiedemann" guiShape="emergency" width="1.5" latAlignment="left" laneChangeModel="SL2015" lcStrategic="0.5" lcCooperative="0.0" vClass="emergency" speedFactor="1.9" jmDriveAfterRedTime="300" jmDriveAfterRedSpeed="5.56">
<param key="has.bluelight.device" value="true"/>
<param key="has.fcd.device" value="true"/> 
</vType>
	<route id="route_0" edges="78[0] 56a 56b 78[1][1]" />
	<route id="route_1" edges="78[0] 56a 56b 78[1][1] 189[0] 189[1][0]+20000 189[1][1] 188 87[0] 20001+87[1][0] 87[1][1] m90 89[0] 20002+89[1][0] 89[1][1] 91 186 109[0] 109[1][0]+20003 109[1][1] 116 46 134 134b -gneE0" />
        <route id="route_2" edges="gneE0 133 31 115 110 185 92 90 m91 88 187 190 77[0] 77[1][1] " />
        <route id="route_3" edges="78[0] 56a 56b 79 68 11 84" />
        <route id="route_4" edges="78[0] 56a 56b 21a 21b " /> 
        <route id="route_5" edges="75 77[0] 79 68 11 84 " />
        <route id="route_6" edges="75 77[0] 21a 21b" />
        <route id="route_7" edges="gneE0 133 31 201 201c 204a[0] " />
        <route id="route_8" edges="gneE0 133 31 113 209" />
        <route id="route_9" edges="119 116 46 113 209" />
        <route id="route_10" edges="119 116 46 201 201c 204a[0]" />
        <route id="route_11" edges="59" />
        <route id="route_12" edges="59" />
        <route id="route_13" edges="59" />
        <route id="route_14" edges="59" />
        <route id="route_15" edges="59" />
        <route id="route_16" edges="59" />
        <route id="route_17" edges="59" />
        <route id="route_18" edges="59" />
        <route id="route_19" edges="59" />
        <route id="route_20" edges="59" />
        <route id="route_21" edges="59" />
        <route id="route_22" edges="59" />
        <route id="route_23" edges="59" />

	<route id="route_24" edges="59"/>
<vehicle id="emergency_0" type="emergency" route="route_22" depart="0" />
<vehicle id="Bus_0" type="Bus" route="route_22" depart="0" />
<vehicle id="Car_0" type="Car" route="route_20" depart="0" />
<vehicle id="MotorCycle_1" type="MotorCycle" route="route_2" depart="2" />
<vehicle id="Auto_2" type="MotorCycle" route="route_2" depart="3" />
<vehicle id="Auto_3" type="MotorCycle" route="route_5" depart="4" />
<vehicle id="MotorCycle_4" type="MotorCycle" route="route_1" depart="5" />
<vehicle id="Bus_5" type="MotorCycle" route="route_1" depart="6" />
<vehicle id="Auto_6" type="MotorCycle" route="route_2" depart="7" />
<vehicle id="Auto_7" type="MotorCycle" route="route_2" depart="8" />
<vehicle id="Auto_8" type="MotorCycle" route="route_1" depart="9" />
<vehicle id="Auto_9" type="Auto" route="route_2" depart="10" />
<vehicle id="Auto_10" type="MotorCycle" route="route_2" depart="10" />
<vehicle id="Auto_11" type="MotorCycle" route="route_7" depart="10" />
<vehicle id="Auto_12" type="Car" route="route_7" depart="10" />
<vehicle id="Auto_13" type="Car" route="route_1" depart="11" />
<vehicle id="Car_14" type="MotorCycle" route="route_2" depart="12" />
<vehicle id="MotorCycle_15" type="MotorCycle" route="route_6" depart="12" />
<vehicle id="Auto_16" type="MotorCycle" route="route_4" depart="13" />
<vehicle id="Auto_17" type="MotorCycle" route="route_2" depart="17" />
<vehicle id="Auto_18" type="Car" route="route_2" depart="17" />
<vehicle id="Car_19" type="Bus" route="route_7" depart="21" />
<vehicle id="Car_20" type="Auto" route="route_7" depart="21" />
<vehicle id="Car_21" type="MotorCycle" route="route_7" depart="21" />
<vehicle id="Car_22" type="Car" route="route_7" depart="21" />
<vehicle id="Car_23" type="MotorCycle" route="route_2" depart="23" />
<vehicle id="Auto_24" type="MotorCycle" route="route_1" depart="24" />
<vehicle id="Auto_25" type="MotorCycle" route="route_9" depart="24" />
<vehicle id="Car_26" type="Car" route="route_1" depart="27" />
<vehicle id="MotorCycle_27" type="MotorCycle" route="route_1" depart="28" />
<vehicle id="Auto_28" type="MotorCycle" route="route_2" depart="28" />
<vehicle id="MotorCycle_29" type="Car" route="route_6" depart="28" />
<vehicle id="MotorCycle_30" type="MotorCycle" route="route_2" depart="30" />
<vehicle id="Bus_31" type="MotorCycle" route="route_1" depart="31" />
<vehicle id="MotorCycle_32" type="MotorCycle" route="route_8" depart="31" />
<vehicle id="MotorCycle_33" type="MotorCycle" route="route_2" depart="32" />
<vehicle id="MotorCycle_34" type="MotorCycle" route="route_2" depart="33" />
<vehicle id="Auto_35" type="MotorCycle" route="route_1" depart="35" />
<vehicle id="MotorCycle_36" type="MotorCycle" route="route_6" depart="35" />
<vehicle id="Bus_37" type="MotorCycle" route="route_2" depart="37" />
<vehicle id="Bus_38" type="MotorCycle" route="route_12" depart="37" />
<vehicle id="Car_39" type="MotorCycle" route="route_1" depart="39" />
<vehicle id="Car_40" type="MotorCycle" route="route_1" depart="41" />
<vehicle id="MotorCycle_41" type="Car" route="route_2" depart="41" />
<vehicle id="Bus_42" type="MotorCycle" route="route_2" depart="42" />
<vehicle id="Auto_43" type="MotorCycle" route="route_16" depart="42" />
<vehicle id="MotorCycle_44" type="MotorCycle" route="route_5" depart="44" />
<vehicle id="MotorCycle_45" type="Car" route="route_5" depart="44" />
<vehicle id="Bus_46" type="MotorCycle" route="route_1" depart="46" />
<vehicle id="Car_47" type="Car" route="route_5" depart="46" />
<vehicle id="Auto_48" type="MotorCycle" route="route_5" depart="47" />
<vehicle id="Bus_49" type="MotorCycle" route="route_2" depart="48" />
<vehicle id="Auto_50" type="MotorCycle" route="route_10" depart="48" />
<vehicle id="MotorCycle_51" type="MotorCycle" route="route_1" depart="49" />
<vehicle id="Bus_52" type="MotorCycle" route="route_7" depart="57" />
<vehicle id="Auto_53" type="Car" route="route_9" depart="63" />
<vehicle id="Car_54" type="Auto" route="route_1" depart="65" />
<vehicle id="Car_55" type="Bus" route="route_4" depart="69" />
<vehicle id="Bus_56" type="MotorCycle" route="route_6" depart="69" />
<vehicle id="MotorCycle_57" type="MotorCycle" route="route_9" depart="69" />
<vehicle id="Auto_58" type="MotorCycle" route="route_7" depart="72" />
<vehicle id="Auto_59" type="Bus" route="route_6" depart="73" />
<vehicle id="Auto_60" type="MotorCycle" route="route_6" depart="73" />
<vehicle id="Auto_61" type="MotorCycle" route="route_2" depart="74" />
<vehicle id="Auto_62" type="MotorCycle" route="route_9" depart="78" />
<vehicle id="Auto_63" type="MotorCycle" route="route_7" depart="100" />
<vehicle id="Auto_64" type="Car" route="route_7" depart="100" />
<vehicle id="Car_65" type="MotorCycle" route="route_2" depart="102" />
<vehicle id="Auto_66" type="MotorCycle" route="route_2" depart="108" />
<vehicle id="MotorCycle_67" type="MotorCycle" route="route_4" depart="111" />
<vehicle id="Bus_68" type="MotorCycle" route="route_3" depart="113" />
<vehicle id="Auto_69" type="MotorCycle" route="route_1" depart="116" />
<vehicle id="Auto_70" type="Car" route="route_1" depart="116" />
<vehicle id="MotorCycle_71" type="Auto" route="route_10" depart="116" />
<vehicle id="MotorCycle_72" type="MotorCycle" route="route_10" depart="116" />
<vehicle id="MotorCycle_73" type="Car" route="route_10" depart="116" />
<vehicle id="Auto_74" type="Auto" route="route_5" depart="125" />
<vehicle id="Auto_75" type="MotorCycle" route="route_5" depart="125" />
<vehicle id="MotorCycle_76" type="MotorCycle" route="route_2" depart="127" />
<vehicle id="Car_77" type="MotorCycle" route="route_1" depart="130" />
<vehicle id="MotorCycle_78" type="Auto" route="route_10" depart="139" />
<vehicle id="MotorCycle_79" type="MotorCycle" route="route_10" depart="139" />
<vehicle id="Car_80" type="MotorCycle" route="route_8" depart="151" />
<vehicle id="Car_81" type="Car" route="route_8" depart="151" />
<vehicle id="Auto_82" type="MotorCycle" route="route_4" depart="155" />
<vehicle id="Auto_83" type="Car" route="route_4" depart="155" />
<vehicle id="Bus_84" type="MotorCycle" route="route_3" depart="158" />
<vehicle id="Car_85" type="MotorCycle" route="route_5" depart="160" />
<vehicle id="Auto_86" type="MotorCycle" route="route_10" depart="167" />
<vehicle id="Bus_87" type="MotorCycle" route="route_8" depart="168" />
<vehicle id="Car_88" type="Bus" route="route_6" depart="175" />
<vehicle id="Car_89" type="MotorCycle" route="route_6" depart="175" />
<vehicle id="Auto_90" type="MotorCycle" route="route_1" depart="188" />
<vehicle id="Bus_91" type="MotorCycle" route="route_8" depart="189" />
<vehicle id="MotorCycle_92" type="MotorCycle" route="route_1" depart="193" />
<vehicle id="MotorCycle_93" type="Car" route="route_1" depart="193" />
<vehicle id="Bus_94" type="MotorCycle" route="route_9" depart="200" />
<vehicle id="MotorCycle_95" type="MotorCycle" route="route_4" depart="203" />
<vehicle id="MotorCycle_96" type="Auto" route="route_2" depart="213" />
<vehicle id="MotorCycle_97" type="MotorCycle" route="route_2" depart="213" />
<vehicle id="MotorCycle_98" type="Auto" route="route_1" depart="214" />
<vehicle id="MotorCycle_99" type="MotorCycle" route="route_1" depart="214" />
<vehicle id="Car_100" type="MotorCycle" route="route_4" depart="215" />
<vehicle id="Bus_101" type="MotorCycle" route="route_6" depart="216" />
<vehicle id="Bus_102" type="MotorCycle" route="route_2" depart="217" />
<vehicle id="Bus_103" type="MotorCycle" route="route_8" depart="219" />
<vehicle id="Bus_104" type="MotorCycle" route="route_9" depart="219" />
<vehicle id="Bus_105" type="Car" route="route_9" depart="219" />
<vehicle id="Auto_106" type="MotorCycle" route="route_8" depart="230" />
<vehicle id="Car_107" type="MotorCycle" route="route_10" depart="232" />
<vehicle id="Car_108" type="MotorCycle" route="route_6" depart="236" />
<vehicle id="Car_109" type="MotorCycle" route="route_3" depart="237" />
<vehicle id="Car_110" type="Car" route="route_3" depart="237" />
<vehicle id="Auto_111" type="MotorCycle" route="route_1" depart="240" />
<vehicle id="Auto_112" type="Car" route="route_9" depart="253" />
<vehicle id="Car_113" type="MotorCycle" route="route_2" depart="256" />
<vehicle id="Auto_114" type="MotorCycle" route="route_5" depart="257" />
<vehicle id="Auto_115" type="Car" route="route_5" depart="257" />
<vehicle id="Auto_116" type="MotorCycle" route="route_3" depart="267" />
<vehicle id="Car_117" type="Auto" route="route_6" depart="276" />
<vehicle id="Car_118" type="MotorCycle" route="route_6" depart="276" />
<vehicle id="Auto_119" type="MotorCycle" route="route_7" depart="279" />
<vehicle id="Car_120" type="MotorCycle" route="route_3" depart="280" />
<vehicle id="MotorCycle_121" type="MotorCycle" route="route_2" depart="281" />
<vehicle id="Auto_122" type="MotorCycle" route="route_5" depart="286" />
<vehicle id="Auto_123" type="MotorCycle" route="route_7" depart="286" />
<vehicle id="Bus_124" type="MotorCycle" route="route_5" depart="292" />
<vehicle id="Bus_125" type="MotorCycle" route="route_9" depart="292" />
<vehicle id="Car_126" type="MotorCycle" route="route_2" depart="300" />
<vehicle id="MotorCycle_127" type="Auto" route="route_10" depart="301" />
<vehicle id="MotorCycle_128" type="MotorCycle" route="route_10" depart="301" />
<vehicle id="MotorCycle_129" type="MotorCycle" route="route_8" depart="304" />
<vehicle id="Auto_130" type="Car" route="route_3" depart="308" />
<vehicle id="MotorCycle_131" type="MotorCycle" route="route_9" depart="311" />
<vehicle id="MotorCycle_132" type="MotorCycle" route="route_5" depart="312" />
<vehicle id="Auto_133" type="MotorCycle" route="route_2" depart="319" />
<vehicle id="Car_134" type="MotorCycle" route="route_1" depart="323" />
<vehicle id="Auto_135" type="MotorCycle" route="route_3" depart="326" />
<vehicle id="Auto_136" type="MotorCycle" route="route_8" depart="332" />
<vehicle id="Bus_137" type="MotorCycle" route="route_3" depart="333" />
<vehicle id="Car_138" type="MotorCycle" route="route_10" depart="337" />
<vehicle id="MotorCycle_139" type="MotorCycle" route="route_9" depart="338" />
<vehicle id="MotorCycle_140" type="MotorCycle" route="route_7" depart="346" />
<vehicle id="Bus_141" type="MotorCycle" route="route_7" depart="348" />
<vehicle id="Auto_142" type="MotorCycle" route="route_6" depart="349" />
<vehicle id="Auto_143" type="Car" route="route_6" depart="349" />
<vehicle id="Bus_144" type="MotorCycle" route="route_8" depart="351" />
<vehicle id="Bus_145" type="MotorCycle" route="route_5" depart="352" />
<vehicle id="Bus_146" type="MotorCycle" route="route_5" depart="353" />
<vehicle id="Auto_147" type="MotorCycle" route="route_9" depart="353" />
<vehicle id="Auto_148" type="Car" route="route_9" depart="353" />
<vehicle id="Bus_149" type="MotorCycle" route="route_4" depart="357" />
<vehicle id="Bus_150" type="Auto" route="route_3" depart="362" />
<vehicle id="Bus_151" type="MotorCycle" route="route_3" depart="362" />
<vehicle id="Auto_152" type="MotorCycle" route="route_4" depart="366" />
<vehicle id="Car_153" type="MotorCycle" route="route_3" depart="369" />
<vehicle id="Bus_154" type="MotorCycle" route="route_1" depart="370" />
<vehicle id="Bus_155" type="MotorCycle" route="route_3" depart="380" />
<vehicle id="Bus_156" type="Auto" route="route_10" depart="391" />
<vehicle id="Bus_157" type="MotorCycle" route="route_10" depart="391" />
<vehicle id="MotorCycle_158" type="MotorCycle" route="route_10" depart="393" />
<vehicle id="MotorCycle_159" type="Car" route="route_10" depart="393" />
<vehicle id="Bus_160" type="MotorCycle" route="route_6" depart="396" />
<vehicle id="Auto_161" type="MotorCycle" route="route_1" depart="397" />
<vehicle id="Auto_162" type="MotorCycle" route="route_3" depart="402" />
<vehicle id="Auto_163" type="Auto" route="route_1" depart="405" />
<vehicle id="Auto_164" type="MotorCycle" route="route_1" depart="405" />
<vehicle id="MotorCycle_165" type="MotorCycle" route="route_2" depart="406" />
<vehicle id="Car_166" type="MotorCycle" route="route_4" depart="408" />
<vehicle id="Car_167" type="Car" route="route_4" depart="408" />
<vehicle id="Bus_168" type="MotorCycle" route="route_3" depart="413" />
<vehicle id="Auto_169" type="MotorCycle" route="route_2" depart="418" />
<vehicle id="Auto_170" type="Car" route="route_2" depart="418" />
<vehicle id="Auto_171" type="MotorCycle" route="route_6" depart="418" />
<vehicle id="MotorCycle_172" type="MotorCycle" route="route_4" depart="419" />
<vehicle id="MotorCycle_173" type="Car" route="route_4" depart="419" />
<vehicle id="Car_174" type="MotorCycle" route="route_3" depart="421" />
<vehicle id="MotorCycle_175" type="MotorCycle" route="route_6" depart="432" />
<vehicle id="Bus_176" type="MotorCycle" route="route_2" depart="433" />
<vehicle id="MotorCycle_177" type="MotorCycle" route="route_9" depart="433" />
<vehicle id="Bus_178" type="MotorCycle" route="route_1" depart="434" />
<vehicle id="Bus_179" type="Car" route="route_1" depart="434" />
<vehicle id="Car_180" type="Auto" route="route_1" depart="436" />
<vehicle id="Car_181" type="MotorCycle" route="route_1" depart="436" />
<vehicle id="Auto_182" type="MotorCycle" route="route_2" depart="450" />
<vehicle id="Bus_183" type="MotorCycle" route="route_4" depart="450" />
<vehicle id="MotorCycle_184" type="MotorCycle" route="route_6" depart="451" />
<vehicle id="Car_185" type="MotorCycle" route="route_1" depart="452" />
<vehicle id="Bus_186" type="MotorCycle" route="route_2" depart="452" />
<vehicle id="MotorCycle_187" type="MotorCycle" route="route_1" depart="453" />
<vehicle id="Bus_188" type="MotorCycle" route="route_4" depart="454" />
<vehicle id="Car_189" type="Bus" route="route_4" depart="455" />
<vehicle id="Car_190" type="MotorCycle" route="route_4" depart="455" />
<vehicle id="Car_191" type="MotorCycle" route="route_10" depart="455" />
<vehicle id="Bus_192" type="MotorCycle" route="route_1" depart="456" />
<vehicle id="Bus_193" type="MotorCycle" route="route_2" depart="456" />
<vehicle id="Bus_194" type="MotorCycle" route="route_4" depart="456" />
<vehicle id="Car_195" type="MotorCycle" route="route_2" depart="457" />
<vehicle id="Auto_196" type="MotorCycle" route="route_4" depart="457" />
<vehicle id="MotorCycle_197" type="MotorCycle" route="route_7" depart="457" />
<vehicle id="MotorCycle_198" type="Car" route="route_7" depart="457" />
<vehicle id="Car_199" type="MotorCycle" route="route_2" depart="458" />
<vehicle id="Auto_200" type="MotorCycle" route="route_1" depart="459" />
<vehicle id="Bus_201" type="MotorCycle" route="route_2" depart="459" />
<vehicle id="Bus_202" type="Car" route="route_2" depart="459" />
<vehicle id="Auto_203" type="MotorCycle" route="route_10" depart="459" />
<vehicle id="Bus_204" type="MotorCycle" route="route_2" depart="460" />
<vehicle id="Car_205" type="MotorCycle" route="route_3" depart="460" />
<vehicle id="Car_206" type="MotorCycle" route="route_1" depart="461" />
<vehicle id="MotorCycle_207" type="MotorCycle" route="route_2" depart="461" />
<vehicle id="MotorCycle_208" type="Car" route="route_2" depart="461" />
<vehicle id="Car_209" type="MotorCycle" route="route_10" depart="461" />
<vehicle id="Auto_210" type="MotorCycle" route="route_1" depart="462" />
<vehicle id="Bus_211" type="MotorCycle" route="route_2" depart="462" />
<vehicle id="MotorCycle_212" type="MotorCycle" route="route_2" depart="463" />
<vehicle id="MotorCycle_213" type="MotorCycle" route="route_5" depart="463" />
<vehicle id="MotorCycle_214" type="MotorCycle" route="route_6" depart="463" />
<vehicle id="Car_215" type="MotorCycle" route="route_1" depart="464" />
<vehicle id="Car_216" type="MotorCycle" route="route_2" depart="464" />
<vehicle id="Auto_217" type="MotorCycle" route="route_9" depart="464" />
<vehicle id="Auto_218" type="Car" route="route_9" depart="464" />
<vehicle id="Bus_219" type="MotorCycle" route="route_1" depart="465" />
<vehicle id="Bus_220" type="MotorCycle" route="route_2" depart="465" />
<vehicle id="Car_221" type="MotorCycle" route="route_1" depart="466" />
<vehicle id="Bus_222" type="MotorCycle" route="route_7" depart="466" />
<vehicle id="Car_223" type="Bus" route="route_1" depart="467" />
<vehicle id="Car_224" type="MotorCycle" route="route_1" depart="467" />
<vehicle id="Auto_225" type="MotorCycle" route="route_2" depart="467" />
<vehicle id="Auto_226" type="Car" route="route_2" depart="467" />
<vehicle id="Bus_227" type="MotorCycle" route="route_1" depart="468" />
<vehicle id="Auto_228" type="MotorCycle" route="route_2" depart="468" />
<vehicle id="Auto_229" type="MotorCycle" route="route_9" depart="468" />
<vehicle id="Car_230" type="MotorCycle" route="route_1" depart="469" />
<vehicle id="Car_231" type="MotorCycle" route="route_2" depart="469" />
<vehicle id="Auto_232" type="MotorCycle" route="route_2" depart="470" />
<vehicle id="MotorCycle_233" type="MotorCycle" route="route_7" depart="470" />
<vehicle id="MotorCycle_234" type="Car" route="route_7" depart="470" />
<vehicle id="MotorCycle_235" type="MotorCycle" route="route_8" depart="470" />
<vehicle id="Car_236" type="MotorCycle" route="route_10" depart="470" />
<vehicle id="Auto_237" type="MotorCycle" route="route_1" depart="471" />
<vehicle id="Car_238" type="MotorCycle" route="route_2" depart="471" />
<vehicle id="Bus_239" type="MotorCycle" route="route_6" depart="471" />
<vehicle id="Car_240" type="MotorCycle" route="route_1" depart="472" />
<vehicle id="Car_241" type="Car" route="route_1" depart="472" />
<vehicle id="MotorCycle_242" type="MotorCycle" route="route_1" depart="473" />
<vehicle id="Auto_243" type="MotorCycle" route="route_2" depart="473" />
<vehicle id="Bus_244" type="MotorCycle" route="route_1" depart="474" />
<vehicle id="MotorCycle_245" type="MotorCycle" route="route_4" depart="474" />
<vehicle id="MotorCycle_246" type="Car" route="route_4" depart="474" />
<vehicle id="Car_247" type="MotorCycle" route="route_10" depart="474" />
<vehicle id="Car_248" type="MotorCycle" route="route_1" depart="475" />
<vehicle id="Auto_249" type="Auto" route="route_7" depart="475" />
<vehicle id="Auto_250" type="MotorCycle" route="route_8" depart="475" />
<vehicle id="MotorCycle_251" type="MotorCycle" route="route_9" depart="475" />
<vehicle id="Bus_252" type="MotorCycle" route="route_1" depart="476" />
<vehicle id="Bus_253" type="MotorCycle" route="route_2" depart="476" />
<vehicle id="Bus_254" type="MotorCycle" route="route_1" depart="477" />
<vehicle id="Car_255" type="MotorCycle" route="route_4" depart="477" />
<vehicle id="Bus_256" type="MotorCycle" route="route_1" depart="478" />
<vehicle id="Bus_257" type="MotorCycle" route="route_2" depart="478" />
<vehicle id="MotorCycle_258" type="MotorCycle" route="route_3" depart="478" />
<vehicle id="Bus_259" type="MotorCycle" route="route_10" depart="478" />
<vehicle id="Car_260" type="Auto" route="route_1" depart="479" />
<vehicle id="Bus_261" type="MotorCycle" route="route_3" depart="479" />
<vehicle id="Car_262" type="MotorCycle" route="route_8" depart="479" />
<vehicle id="Bus_263" type="MotorCycle" route="route_9" depart="479" />
<vehicle id="Car_264" type="MotorCycle" route="route_2" depart="480" />
<vehicle id="Auto_265" type="Auto" route="route_2" depart="481" />
<vehicle id="Bus_266" type="Car" route="route_9" depart="481" />
<vehicle id="Bus_267" type="MotorCycle" route="route_1" depart="482" />
<vehicle id="Auto_268" type="Auto" route="route_6" depart="482" />
<vehicle id="Auto_269" type="MotorCycle" route="route_6" depart="482" />
<vehicle id="Bus_270" type="MotorCycle" route="route_9" depart="482" />
<vehicle id="Bus_271" type="MotorCycle" route="route_1" depart="483" />
<vehicle id="Bus_272" type="Car" route="route_1" depart="483" />
<vehicle id="Car_273" type="MotorCycle" route="route_2" depart="483" />
<vehicle id="Bus_274" type="MotorCycle" route="route_1" depart="484" />
<vehicle id="Bus_275" type="Car" route="route_1" depart="484" />
<vehicle id="Bus_276" type="MotorCycle" route="route_10" depart="484" />
<vehicle id="Car_277" type="MotorCycle" route="route_1" depart="485" />
<vehicle id="Bus_278" type="Auto" route="route_2" depart="485" />
<vehicle id="Bus_279" type="MotorCycle" route="route_2" depart="485" />
<vehicle id="MotorCycle_280" type="MotorCycle" route="route_6" depart="485" />
<vehicle id="Auto_281" type="MotorCycle" route="route_1" depart="486" />
<vehicle id="MotorCycle_282" type="MotorCycle" route="route_1" depart="488" />
<vehicle id="Car_283" type="MotorCycle" route="route_2" depart="488" />
<vehicle id="Car_284" type="Car" route="route_2" depart="488" />
<vehicle id="MotorCycle_285" type="MotorCycle" route="route_1" depart="489" />
<vehicle id="MotorCycle_286" type="MotorCycle" route="route_2" depart="489" />
<vehicle id="MotorCycle_287" type="MotorCycle" route="route_1" depart="490" />
<vehicle id="MotorCycle_288" type="MotorCycle" route="route_4" depart="490" />
<vehicle id="MotorCycle_289" type="MotorCycle" route="route_1" depart="491" />
<vehicle id="Bus_290" type="MotorCycle" route="route_2" depart="491" />
<vehicle id="Auto_291" type="Car" route="route_2" depart="492" />
<vehicle id="Auto_292" type="MotorCycle" route="route_7" depart="492" />
<vehicle id="Bus_293" type="Car" route="route_9" depart="492" />
<vehicle id="Bus_294" type="MotorCycle" route="route_1" depart="493" />
<vehicle id="Bus_295" type="Car" route="route_1" depart="493" />
<vehicle id="Bus_296" type="MotorCycle" route="route_2" depart="493" />
<vehicle id="Auto_297" type="MotorCycle" route="route_1" depart="494" />
<vehicle id="MotorCycle_298" type="Auto" route="route_6" depart="494" />
<vehicle id="MotorCycle_299" type="MotorCycle" route="route_6" depart="494" />
<vehicle id="MotorCycle_300" type="Auto" route="route_7" depart="494" />
<vehicle id="MotorCycle_301" type="MotorCycle" route="route_7" depart="494" />
<vehicle id="MotorCycle_302" type="Car" route="route_7" depart="494" />
<vehicle id="Bus_303" type="Car" route="route_8" depart="494" />
<vehicle id="Bus_304" type="MotorCycle" route="route_2" depart="495" />
<vehicle id="Car_305" type="MotorCycle" route="route_2" depart="496" />
<vehicle id="Auto_306" type="Auto" route="route_1" depart="497" />
<vehicle id="Auto_307" type="MotorCycle" route="route_1" depart="497" />
<vehicle id="Auto_308" type="MotorCycle" route="route_2" depart="497" />
<vehicle id="MotorCycle_309" type="MotorCycle" route="route_5" depart="497" />
<vehicle id="MotorCycle_310" type="Car" route="route_5" depart="497" />
<vehicle id="Car_311" type="MotorCycle" route="route_2" depart="498" />
<vehicle id="MotorCycle_312" type="MotorCycle" route="route_2" depart="499" />
<vehicle id="MotorCycle_313" type="MotorCycle" route="route_6" depart="499" />
<vehicle id="MotorCycle_314" type="MotorCycle" route="route_4" depart="500" />
<vehicle id="Auto_315" type="MotorCycle" route="route_3" depart="503" />
<vehicle id="Bus_316" type="MotorCycle" route="route_10" depart="504" />
<vehicle id="Bus_317" type="Auto" route="route_1" depart="507" />
<vehicle id="Auto_318" type="MotorCycle" route="route_2" depart="511" />
<vehicle id="Auto_319" type="Car" route="route_2" depart="512" />
<vehicle id="Car_320" type="MotorCycle" route="route_6" depart="512" />
<vehicle id="Car_321" type="MotorCycle" route="route_9" depart="512" />
<vehicle id="Auto_322" type="MotorCycle" route="route_1" depart="521" />
<vehicle id="Bus_323" type="MotorCycle" route="route_8" depart="530" />
<vehicle id="Bus_324" type="Auto" route="route_10" depart="534" />
<vehicle id="Bus_325" type="MotorCycle" route="route_10" depart="534" />
<vehicle id="Bus_326" type="MotorCycle" route="route_10" depart="535" />
<vehicle id="Bus_327" type="MotorCycle" route="route_3" depart="539" />
<vehicle id="Bus_328" type="Car" route="route_3" depart="539" />
<vehicle id="Bus_329" type="MotorCycle" route="route_9" depart="551" />
<vehicle id="Auto_330" type="MotorCycle" route="route_7" depart="552" />
<vehicle id="Car_331" type="MotorCycle" route="route_5" depart="554" />
<vehicle id="Auto_332" type="MotorCycle" route="route_2" depart="556" />
<vehicle id="Bus_333" type="MotorCycle" route="route_1" depart="566" />
<vehicle id="Auto_334" type="MotorCycle" route="route_1" depart="567" />
<vehicle id="Bus_335" type="MotorCycle" route="route_3" depart="572" />
<vehicle id="Auto_336" type="Bus" route="route_2" depart="573" />
<vehicle id="Auto_337" type="MotorCycle" route="route_2" depart="573" />
<vehicle id="Auto_338" type="Car" route="route_2" depart="573" />
<vehicle id="Auto_339" type="MotorCycle" route="route_6" depart="585" />
<vehicle id="Car_340" type="MotorCycle" route="route_1" depart="587" />
<vehicle id="Auto_341" type="MotorCycle" route="route_7" depart="592" />
<vehicle id="Auto_342" type="MotorCycle" route="route_4" depart="597" />
<vehicle id="MotorCycle_343" type="MotorCycle" route="route_2" depart="599" />
<vehicle id="Auto_344" type="MotorCycle" route="route_3" depart="602" />
<vehicle id="Auto_345" type="Bus" route="route_8" depart="602" />
<vehicle id="Car_346" type="MotorCycle" route="route_5" depart="603" />
<vehicle id="Auto_347" type="MotorCycle" route="route_1" depart="617" />
<vehicle id="MotorCycle_348" type="MotorCycle" route="route_7" depart="623" />
<vehicle id="Auto_349" type="MotorCycle" route="route_2" depart="628" />
<vehicle id="Car_350" type="MotorCycle" route="route_7" depart="646" />
<vehicle id="Car_351" type="Car" route="route_7" depart="646" />
<vehicle id="MotorCycle_352" type="MotorCycle" route="route_9" depart="647" />
<vehicle id="MotorCycle_353" type="MotorCycle" route="route_2" depart="652" />
<vehicle id="MotorCycle_354" type="Car" route="route_2" depart="652" />
<vehicle id="Auto_355" type="MotorCycle" route="route_1" depart="654" />
<vehicle id="Auto_356" type="Auto" route="route_7" depart="657" />
<vehicle id="Auto_357" type="MotorCycle" route="route_7" depart="657" />
<vehicle id="Bus_358" type="MotorCycle" route="route_10" depart="657" />
<vehicle id="Bus_359" type="Car" route="route_10" depart="657" />
<vehicle id="Car_360" type="Auto" route="route_10" depart="660" />
<vehicle id="Car_361" type="MotorCycle" route="route_10" depart="660" />
<vehicle id="Bus_362" type="MotorCycle" route="route_6" depart="661" />
<vehicle id="Car_363" type="MotorCycle" route="route_2" depart="664" />
<vehicle id="Auto_364" type="MotorCycle" route="route_10" depart="667" />
<vehicle id="Car_365" type="Auto" route="route_5" depart="671" />
<vehicle id="Car_366" type="MotorCycle" route="route_5" depart="671" />
<vehicle id="Auto_367" type="MotorCycle" route="route_6" depart="672" />
<vehicle id="Bus_368" type="MotorCycle" route="route_1" depart="676" />
<vehicle id="Bus_369" type="Car" route="route_1" depart="676" />
<vehicle id="Bus_370" type="MotorCycle" route="route_6" depart="676" />
<vehicle id="Car_371" type="MotorCycle" route="route_2" depart="677" />
<vehicle id="MotorCycle_372" type="MotorCycle" route="route_7" depart="687" />
<vehicle id="Bus_373" type="Bus" route="route_1" depart="689" />
<vehicle id="MotorCycle_374" type="MotorCycle" route="route_10" depart="690" />