<routes>
<vType id="Bus" accel="0.6" decel="3.5" sigma="0.5" length="10.1" minGap="1.0" maxSpeed="16.67" carFollowModel="Wiedemann" guiShape="bus" width="2.45" latAlignment="left" laneChangeModel="SL2015" lcStrategic="0.5" lcCooperative="0.0"/>
<vType id="Auto" accel="0.7" decel="4.5" sigma="0.5" length="2.6" minGap="0.3" maxSpeed="16" carFollowModel="Wiedemann" guiShape="passenger/sedan" width="1.25" latAlignment="left" laneChangeModel="SL2015" lcStrategic="0.5" lcCooperative="0.0" />
<vType id="MotorCycle" accel="0.9" decel="3.5" sigma="0.5" length="1.85" minGap="0.15"  carFollowModel="Wiedemann" maxSpeed="17" guiShape="motorcycle" width="0.7" latAlignment="left" laneChangeModel="SL2015" lcStrategic="0.5" lcCooperative="0.0"/>
<vType id="Car" accel="0.8" decel="4.5" sigma="0.5" length="3.6" minGap="0.5" maxSpeed="40" carFollowModel="Wiedemann" guiShape="passenger" width="1.5" latAlignment="left" laneChangeModel="SL2015" lcStrategic="0.5" lcCooperative="0.0"/>
<vType id="emergency" accel="2.8" decel="5.5" sigma="0.5" length="3.6" minGap="0.5" maxSpeed="120.6" carFollowModel="Wiedemann" guiShape="emergency" width="1.5" latAlignment="left" laneChangeModel="SL2015" lcStrategic="0.5" lcCooperative="0.0" vClass="emergency" speedFactor="1.9" jmDriveAfterRedTime="300" jmDriveAfterRedSpeed="5.56">
<param key="has.bluelight.device" value="true"/>
<param key="has.fcd.device" value="true"/> 
</vType>
	<route id="route_0" edges="78[0] 56a 56b 78[1][1]" />
	<route id="route_1" edges="78[0] 56a 56b 78[1][1] 189[0] 189[1][0]+20000 189[1][1] 188 87[0] 20001+87[1][0] 87[1][1] m90 89[0] 20002+89[1][0] 89[1][1] 91 186 109[0] 109[1][0]+20003 109[1][1] 116 46 134 134b -gneE0" />
        <route id="route_2" edges="gneE0 133 31 115 110 185 92 90 m91 88 187 190 77[0] 77[1][1] " />
        <route id="route_3" edges="78[0] 56a 56b 79 68 11 84" />
        <route id="route_4" edges="78[0] 56a 56b 21a 21b " /> 
        <route id="route_5" edges="75 77[0] 79 68 11 84 " />
        <route id="route_6" edges="75 77[0] 21a 21b" />
        <route id="route_7" edges="gneE0 133 31 201 201c 204a[0] " />
        <route id="route_8" edges="gneE0 133 31 113 209" />
        <route id="route_9" edges="119 116 46 113 209" />
        <route id="route_10" edges="119 116 46 201 201c 204a[0]" />
        <route id="route_11" edges="59" />
        <route id="route_12" edges="59" />
        <route id="route_13" edges="59" />
        <route id="route_14" edges="59" />
        <route id="route_15" edges="59" />
        <route id="route_16" edges="59" />
        <route id="route_17" edges="59" />
        <route id="route_18" edges="59" />
        <route id="route_19" edges="59" />
        <route id="route_20" edges="59" />
        <route id="route_21" edges="59" />
        <route id="route_22" edges="59" />
        <route id="route_23" edges="59" />

	<route id="route_24" edges="59"/>
<vehicle id="emergency_0" type="emergency" route="route_7" depart="0" />
<vehicle id="Bus_0" type="Bus" route="route_7" depart="0" />
<vehicle id="Car_0" type="Car" route="route_1" depart="0" />
<vehicle id="Auto_1" type="Bus" route="route_2" depart="1" />
<vehicle id="Auto_2" type="MotorCycle" route="route_2" depart="1" />
<vehicle id="MotorCycle_3" type="MotorCycle" route="route_1" depart="3" />
<vehicle id="MotorCycle_4" type="MotorCycle" route="route_10" depart="3" />
<vehicle id="MotorCycle_5" type="Car" route="route_10" depart="3" />
<vehicle id="Auto_6" type="MotorCycle" route="route_1" depart="6" />
<vehicle id="Bus_7" type="MotorCycle" route="route_2" depart="7" />
<vehicle id="Bus_8" type="MotorCycle" route="route_4" depart="8" />
<vehicle id="Car_9" type="MotorCycle" route="route_5" depart="12" />
<vehicle id="Bus_10" type="MotorCycle" route="route_2" depart="13" />
<vehicle id="MotorCycle_11" type="MotorCycle" route="route_2" depart="14" />
<vehicle id="Car_12" type="MotorCycle" route="route_3" depart="17" />
<vehicle id="MotorCycle_13" type="MotorCycle" route="route_2" depart="18" />
<vehicle id="Auto_14" type="Car" route="route_3" depart="18" />
<vehicle id="Auto_15" type="MotorCycle" route="route_2" depart="19" />
<vehicle id="MotorCycle_16" type="MotorCycle" route="route_7" depart="19" />
<vehicle id="MotorCycle_17" type="MotorCycle" route="route_2" depart="23" />
<vehicle id="Bus_18" type="MotorCycle" route="route_10" depart="23" />
<vehicle id="Bus_19" type="Car" route="route_10" depart="23" />
<vehicle id="Car_20" type="MotorCycle" route="route_2" depart="25" />
<vehicle id="MotorCycle_21" type="MotorCycle" route="route_3" depart="27" />
<vehicle id="Car_22" type="MotorCycle" route="route_9" depart="27" />
<vehicle id="Car_23" type="MotorCycle" route="route_8" depart="28" />
<vehicle id="MotorCycle_24" type="MotorCycle" route="route_2" depart="30" />
<vehicle id="Bus_25" type="MotorCycle" route="route_2" depart="31" />
<vehicle id="Auto_26" type="MotorCycle" route="route_9" depart="31" />
<vehicle id="Auto_27" type="Auto" route="route_3" depart="34" />
<vehicle id="Auto_28" type="MotorCycle" route="route_3" depart="34" />
<vehicle id="Auto_29" type="MotorCycle" route="route_1" depart="38" />
<vehicle id="Car_30" type="MotorCycle" route="route_2" depart="38" />
<vehicle id="Car_31" type="Car" route="route_2" depart="38" />
<vehicle id="Car_32" type="Auto" route="route_8" depart="38" />
<vehicle id="Car_33" type="MotorCycle" route="route_8" depart="38" />
<vehicle id="Auto_34" type="MotorCycle" route="route_1" depart="40" />
<vehicle id="Auto_35" type="MotorCycle" route="route_3" depart="40" />
<vehicle id="Car_36" type="MotorCycle" route="route_1" depart="41" />
<vehicle id="Car_37" type="Car" route="route_1" depart="41" />
<vehicle id="Car_38" type="Car" route="route_2" depart="41" />
<vehicle id="Auto_39" type="MotorCycle" route="route_1" depart="42" />
<vehicle id="Car_40" type="MotorCycle" route="route_1" depart="44" />
<vehicle id="Car_41" type="MotorCycle" route="route_1" depart="46" />
<vehicle id="Car_42" type="MotorCycle" route="route_9" depart="46" />
<vehicle id="Auto_43" type="MotorCycle" route="route_1" depart="47" />
<vehicle id="Car_44" type="MotorCycle" route="route_6" depart="49" />
<vehicle id="Auto_45" type="Car" route="route_1" depart="53" />
<vehicle id="MotorCycle_46" type="Auto" route="route_3" depart="57" />
<vehicle id="Bus_47" type="MotorCycle" route="route_10" depart="58" />
<vehicle id="MotorCycle_48" type="MotorCycle" route="route_3" depart="59" />
<vehicle id="Car_49" type="MotorCycle" route="route_1" depart="68" />
<vehicle id="Car_50" type="Car" route="route_1" depart="68" />
<vehicle id="MotorCycle_51" type="MotorCycle" route="route_8" depart="69" />
<vehicle id="Auto_52" type="Auto" route="route_10" depart="69" />
<vehicle id="Auto_53" type="MotorCycle" route="route_10" depart="69" />
<vehicle id="Car_54" type="MotorCycle" route="route_7" depart="70" />
<vehicle id="Bus_55" type="MotorCycle" route="route_1" depart="71" />
<vehicle id="Bus_56" type="MotorCycle" route="route_2" depart="73" />
<vehicle id="Bus_57" type="MotorCycle" route="route_4" depart="73" />
<vehicle id="MotorCycle_58" type="MotorCycle" route="route_3" depart="92" />
<vehicle id="Auto_59" type="MotorCycle" route="route_10" depart="98" />
<vehicle id="Auto_60" type="Car" route="route_10" depart="98" />
<vehicle id="Auto_61" type="MotorCycle" route="route_1" depart="99" />
<vehicle id="Auto_62" type="Car" route="route_1" depart="99" />
<vehicle id="Bus_63" type="MotorCycle" route="route_8" depart="109" />
<vehicle id="MotorCycle_64" type="MotorCycle" route="route_4" depart="110" />
<vehicle id="Car_65" type="Bus" route="route_5" depart="111" />
<vehicle id="Bus_66" type="MotorCycle" route="route_9" depart="111" />
<vehicle id="Bus_67" type="MotorCycle" route="route_2" depart="118" />
<vehicle id="Bus_68" type="Car" route="route_2" depart="118" />
<vehicle id="MotorCycle_69" type="MotorCycle" route="route_1" depart="124" />
<vehicle id="Bus_70" type="MotorCycle" route="route_7" depart="131" />
<vehicle id="Bus_71" type="Car" route="route_2" depart="134" />
<vehicle id="Car_72" type="Car" route="route_10" depart="134" />
<vehicle id="MotorCycle_73" type="MotorCycle" route="route_2" depart="136" />
<vehicle id="Bus_74" type="MotorCycle" route="route_9" depart="140" />
<vehicle id="Bus_75" type="MotorCycle" route="route_1" depart="142" />
<vehicle id="Auto_76" type="MotorCycle" route="route_6" depart="142" />
<vehicle id="Auto_77" type="MotorCycle" route="route_2" depart="146" />
<vehicle id="Bus_78" type="Car" route="route_3" depart="146" />
<vehicle id="Auto_79" type="MotorCycle" route="route_5" depart="146" />
<vehicle id="Car_80" type="Auto" route="route_2" depart="148" />
<vehicle id="Car_81" type="MotorCycle" route="route_2" depart="148" />
<vehicle id="MotorCycle_82" type="MotorCycle" route="route_4" depart="149" />
<vehicle id="MotorCycle_83" type="Car" route="route_4" depart="149" />
<vehicle id="Auto_84" type="Car" route="route_1" depart="159" />
<vehicle id="Car_85" type="MotorCycle" route="route_10" depart="170" />
<vehicle id="Auto_86" type="MotorCycle" route="route_2" depart="182" />
<vehicle id="MotorCycle_87" type="MotorCycle" route="route_3" depart="185" />
<vehicle id="Car_88" type="MotorCycle" route="route_10" depart="185" />
<vehicle id="Car_89" type="Car" route="route_10" depart="185" />
<vehicle id="Auto_90" type="MotorCycle" route="route_5" depart="195" />
<vehicle id="MotorCycle_91" type="MotorCycle" route="route_1" depart="197" />
<vehicle id="MotorCycle_92" type="Car" route="route_1" depart="197" />
<vehicle id="MotorCycle_93" type="MotorCycle" route="route_2" depart="199" />
<vehicle id="Bus_94" type="MotorCycle" route="route_2" depart="200" />
<vehicle id="Bus_95" type="MotorCycle" route="route_9" depart="200" />
<vehicle id="Bus_96" type="Auto" route="route_8" depart="204" />
<vehicle id="Bus_97" type="MotorCycle" route="route_8" depart="204" />
<vehicle id="Auto_98" type="MotorCycle" route="route_5" depart="206" />
<vehicle id="Auto_99" type="MotorCycle" route="route_6" depart="214" />
<vehicle id="Bus_100" type="MotorCycle" route="route_7" depart="217" />
<vehicle id="Bus_101" type="Car" route="route_7" depart="217" />
<vehicle id="Car_102" type="MotorCycle" route="route_2" depart="218" />
<vehicle id="Bus_103" type="MotorCycle" route="route_3" depart="218" />
<vehicle id="Car_104" type="MotorCycle" route="route_4" depart="222" />
<vehicle id="Car_105" type="Auto" route="route_5" depart="223" />
<vehicle id="Car_106" type="Car" route="route_5" depart="223" />
<vehicle id="Auto_107" type="MotorCycle" route="route_5" depart="224" />
<vehicle id="MotorCycle_108" type="MotorCycle" route="route_1" depart="229" />
<vehicle id="MotorCycle_109" type="MotorCycle" route="route_4" depart="230" />
<vehicle id="Car_110" type="MotorCycle" route="route_6" depart="230" />
<vehicle id="Auto_111" type="MotorCycle" route="route_2" depart="231" />
<vehicle id="Bus_112" type="MotorCycle" route="route_1" depart="236" />
<vehicle id="Car_113" type="MotorCycle" route="route_3" depart="236" />
<vehicle id="Bus_114" type="MotorCycle" route="route_7" depart="245" />
<vehicle id="Auto_115" type="MotorCycle" route="route_10" depart="252" />
<vehicle id="Auto_116" type="Car" route="route_1" depart="253" />
<vehicle id="MotorCycle_117" type="MotorCycle" route="route_5" depart="253" />
<vehicle id="Bus_118" type="MotorCycle" route="route_10" depart="254" />
<vehicle id="Auto_119" type="MotorCycle" route="route_5" depart="258" />
<vehicle id="Bus_120" type="MotorCycle" route="route_4" depart="263" />
<vehicle id="Bus_121" type="Car" route="route_4" depart="263" />
<vehicle id="MotorCycle_122" type="Car" route="route_5" depart="269" />
<vehicle id="MotorCycle_123" type="MotorCycle" route="route_3" depart="271" />
<vehicle id="Car_124" type="MotorCycle" route="route_5" depart="279" />
<vehicle id="Car_125" type="Car" route="route_5" depart="279" />
<vehicle id="Bus_126" type="Bus" route="route_6" depart="288" />
<vehicle id="Bus_127" type="MotorCycle" route="route_6" depart="288" />
<vehicle id="Auto_128" type="Car" route="route_8" depart="291" />
<vehicle id="Car_129" type="MotorCycle" route="route_8" depart="299" />
<vehicle id="Car_130" type="MotorCycle" route="route_3" depart="300" />
<vehicle id="Car_131" type="MotorCycle" route="route_3" depart="304" />
<vehicle id="Car_132" type="MotorCycle" route="route_1" depart="305" />
<vehicle id="Bus_133" type="MotorCycle" route="route_9" depart="306" />
<vehicle id="Car_134" type="MotorCycle" route="route_9" depart="307" />
<vehicle id="Bus_135" type="MotorCycle" route="route_7" depart="309" />
<vehicle id="Bus_136" type="Car" route="route_7" depart="309" />
<vehicle id="Car_137" type="MotorCycle" route="route_2" depart="310" />
<vehicle id="Car_138" type="Car" route="route_2" depart="310" />
<vehicle id="Auto_139" type="MotorCycle" route="route_7" depart="313" />
<vehicle id="MotorCycle_140" type="MotorCycle" route="route_2" depart="317" />
<vehicle id="Auto_141" type="MotorCycle" route="route_4" depart="319" />
<vehicle id="Car_142" type="MotorCycle" route="route_7" depart="320" />
<vehicle id="Auto_143" type="MotorCycle" route="route_4" depart="323" />
<vehicle id="Auto_144" type="Car" route="route_1" depart="325" />
<vehicle id="Bus_145" type="Car" route="route_3" depart="325" />
<vehicle id="MotorCycle_146" type="MotorCycle" route="route_1" depart="326" />
<vehicle id="Bus_147" type="Auto" route="route_6" depart="332" />
<vehicle id="Bus_148" type="MotorCycle" route="route_6" depart="332" />
<vehicle id="Car_149" type="Auto" route="route_4" depart="335" />
<vehicle id="Car_150" type="MotorCycle" route="route_4" depart="335" />
<vehicle id="Bus_151" type="MotorCycle" route="route_2" depart="337" />
<vehicle id="MotorCycle_152" type="MotorCycle" route="route_1" depart="339" />
<vehicle id="MotorCycle_153" type="Car" route="route_1" depart="339" />
<vehicle id="Car_154" type="MotorCycle" route="route_8" depart="350" />
<vehicle id="MotorCycle_155" type="MotorCycle" route="route_4" depart="354" />
<vehicle id="MotorCycle_156" type="MotorCycle" route="route_10" depart="362" />
<vehicle id="MotorCycle_157" type="MotorCycle" route="route_5" depart="363" />
<vehicle id="MotorCycle_158" type="MotorCycle" route="route_4" depart="366" />
<vehicle id="MotorCycle_159" type="Car" route="route_4" depart="366" />
<vehicle id="Bus_160" type="MotorCycle" route="route_6" depart="371" />
<vehicle id="Car_161" type="MotorCycle" route="route_2" depart="372" />
<vehicle id="Bus_162" type="MotorCycle" route="route_3" depart="372" />
<vehicle id="Auto_163" type="MotorCycle" route="route_6" depart="372" />
<vehicle id="Car_164" type="MotorCycle" route="route_6" depart="375" />
<vehicle id="Car_165" type="MotorCycle" route="route_10" depart="376" />
<vehicle id="Bus_166" type="MotorCycle" route="route_9" depart="379" />
<vehicle id="Bus_167" type="MotorCycle" route="route_4" depart="402" />
<vehicle id="Bus_168" type="MotorCycle" route="route_5" depart="403" />
<vehicle id="MotorCycle_169" type="Car" route="route_9" depart="404" />
<vehicle id="MotorCycle_170" type="MotorCycle" route="route_5" depart="418" />
<vehicle id="MotorCycle_171" type="MotorCycle" route="route_6" depart="421" />
<vehicle id="Auto_172" type="MotorCycle" route="route_2" depart="424" />
<vehicle id="Auto_173" type="MotorCycle" route="route_3" depart="424" />
<vehicle id="Car_174" type="Bus" route="route_1" depart="425" />
<vehicle id="MotorCycle_175" type="Bus" route="route_5" depart="426" />
<vehicle id="MotorCycle_176" type="Auto" route="route_5" depart="426" />
<vehicle id="Auto_177" type="Car" route="route_2" depart="438" />
<vehicle id="Car_178" type="MotorCycle" route="route_3" depart="446" />
<vehicle id="Bus_179" type="MotorCycle" route="route_10" depart="449" />
<vehicle id="Car_180" type="MotorCycle" route="route_1" depart="450" />
<vehicle id="Auto_181" type="MotorCycle" route="route_2" depart="450" />
<vehicle id="MotorCycle_182" type="Auto" route="route_6" depart="450" />
<vehicle id="MotorCycle_183" type="MotorCycle" route="route_6" depart="450" />
<vehicle id="MotorCycle_184" type="MotorCycle" route="route_1" depart="451" />
<vehicle id="MotorCycle_185" type="MotorCycle" route="route_3" depart="451" />
<vehicle id="MotorCycle_186" type="MotorCycle" route="route_2" depart="452" />
<vehicle id="MotorCycle_187" type="Car" route="route_2" depart="452" />
<vehicle id="Car_188" type="MotorCycle" route="route_10" depart="452" />
<vehicle id="Auto_189" type="MotorCycle" route="route_1" depart="453" />
<vehicle id="Auto_190" type="Bus" route="route_2" depart="453" />
<vehicle id="Auto_191" type="MotorCycle" route="route_2" depart="453" />
<vehicle id="Car_192" type="MotorCycle" route="route_6" depart="453" />
<vehicle id="Car_193" type="Car" route="route_6" depart="453" />
<vehicle id="Auto_194" type="MotorCycle" route="route_7" depart="453" />
<vehicle id="Auto_195" type="Car" route="route_7" depart="453" />
<vehicle id="MotorCycle_196" type="Auto" route="route_1" depart="454" />
<vehicle id="MotorCycle_197" type="MotorCycle" route="route_8" depart="454" />
<vehicle id="Auto_198" type="MotorCycle" route="route_2" depart="455" />
<vehicle id="Auto_199" type="Car" route="route_2" depart="455" />
<vehicle id="Car_200" type="MotorCycle" route="route_8" depart="455" />
<vehicle id="Car_201" type="Car" route="route_8" depart="455" />
<vehicle id="Bus_202" type="MotorCycle" route="route_2" depart="456" />
<vehicle id="Bus_203" type="Bus" route="route_4" depart="456" />
<vehicle id="Bus_204" type="MotorCycle" route="route_4" depart="456" />
<vehicle id="MotorCycle_205" type="MotorCycle" route="route_1" depart="457" />
<vehicle id="Bus_206" type="MotorCycle" route="route_2" depart="457" />
<vehicle id="Car_207" type="MotorCycle" route="route_9" depart="457" />
<vehicle id="Auto_208" type="MotorCycle" route="route_1" depart="458" />
<vehicle id="Bus_209" type="MotorCycle" route="route_2" depart="458" />
<vehicle id="Car_210" type="MotorCycle" route="route_1" depart="459" />
<vehicle id="Auto_211" type="MotorCycle" route="route_6" depart="459" />
<vehicle id="Car_212" type="MotorCycle" route="route_7" depart="459" />
<vehicle id="Bus_213" type="MotorCycle" route="route_8" depart="459" />
<vehicle id="Bus_214" type="MotorCycle" route="route_9" depart="459" />
<vehicle id="Bus_215" type="Car" route="route_9" depart="459" />
<vehicle id="MotorCycle_216" type="MotorCycle" route="route_1" depart="460" />
<vehicle id="Bus_217" type="MotorCycle" route="route_1" depart="461" />
<vehicle id="Auto_218" type="MotorCycle" route="route_1" depart="462" />
<vehicle id="MotorCycle_219" type="MotorCycle" route="route_3" depart="462" />
<vehicle id="MotorCycle_220" type="Car" route="route_3" depart="462" />
<vehicle id="Auto_221" type="MotorCycle" route="route_2" depart="463" />
<vehicle id="Auto_222" type="MotorCycle" route="route_6" depart="463" />
<vehicle id="Bus_223" type="MotorCycle" route="route_8" depart="463" />
<vehicle id="Car_224" type="MotorCycle" route="route_10" depart="463" />
<vehicle id="Auto_225" type="MotorCycle" route="route_1" depart="464" />
<vehicle id="Bus_226" type="MotorCycle" route="route_2" depart="464" />
<vehicle id="Bus_227" type="Car" route="route_2" depart="464" />
<vehicle id="Car_228" type="MotorCycle" route="route_2" depart="465" />
<vehicle id="Car_229" type="Car" route="route_2" depart="465" />
<vehicle id="Car_230" type="MotorCycle" route="route_1" depart="466" />
<vehicle id="Car_231" type="Auto" route="route_2" depart="466" />
<vehicle id="Car_232" type="MotorCycle" route="route_2" depart="466" />
<vehicle id="MotorCycle_233" type="Car" route="route_9" depart="466" />
<vehicle id="MotorCycle_234" type="MotorCycle" route="route_1" depart="467" />
<vehicle id="Car_235" type="MotorCycle" route="route_2" depart="467" />
<vehicle id="MotorCycle_236" type="MotorCycle" route="route_4" depart="467" />
<vehicle id="Bus_237" type="Bus" route="route_1" depart="468" />
<vehicle id="Car_238" type="MotorCycle" route="route_2" depart="468" />
<vehicle id="Car_239" type="MotorCycle" route="route_4" depart="468" />
<vehicle id="MotorCycle_240" type="MotorCycle" route="route_6" depart="468" />
<vehicle id="Auto_241" type="MotorCycle" route="route_9" depart="468" />
<vehicle id="MotorCycle_242" type="MotorCycle" route="route_1" depart="469" />
<vehicle id="Auto_243" type="MotorCycle" route="route_2" depart="469" />
<vehicle id="Bus_244" type="MotorCycle" route="route_8" depart="469" />
<vehicle id="Bus_245" type="Bus" route="route_2" depart="470" />
<vehicle id="Bus_246" type="Car" route="route_2" depart="470" />
<vehicle id="Bus_247" type="MotorCycle" route="route_6" depart="470" />
<vehicle id="Bus_248" type="MotorCycle" route="route_1" depart="471" />
<vehicle id="Car_249" type="MotorCycle" route="route_1" depart="472" />
<vehicle id="Auto_250" type="Bus" route="route_2" depart="472" />
<vehicle id="Auto_251" type="MotorCycle" route="route_2" depart="472" />
<vehicle id="Car_252" type="MotorCycle" route="route_2" depart="474" />
<vehicle id="Bus_253" type="MotorCycle" route="route_1" depart="475" />
<vehicle id="MotorCycle_254" type="MotorCycle" route="route_5" depart="475" />
<vehicle id="MotorCycle_255" type="MotorCycle" route="route_1" depart="476" />
<vehicle id="MotorCycle_256" type="Car" route="route_1" depart="476" />
<vehicle id="MotorCycle_257" type="MotorCycle" route="route_3" depart="476" />
<vehicle id="MotorCycle_258" type="MotorCycle" route="route_1" depart="477" />
<vehicle id="MotorCycle_259" type="Car" route="route_1" depart="477" />
<vehicle id="Auto_260" type="MotorCycle" route="route_1" depart="478" />
<vehicle id="MotorCycle_261" type="MotorCycle" route="route_10" depart="478" />
<vehicle id="Car_262" type="MotorCycle" route="route_1" depart="479" />
<vehicle id="Car_263" type="Car" route="route_1" depart="479" />
<vehicle id="MotorCycle_264" type="MotorCycle" route="route_3" depart="479" />
<vehicle id="MotorCycle_265" type="MotorCycle" route="route_3" depart="480" />
<vehicle id="Auto_266" type="MotorCycle" route="route_4" depart="480" />
<vehicle id="Car_267" type="MotorCycle" route="route_7" depart="480" />
<vehicle id="Car_268" type="MotorCycle" route="route_1" depart="481" />
<vehicle id="Bus_269" type="MotorCycle" route="route_2" depart="481" />
<vehicle id="MotorCycle_270" type="MotorCycle" route="route_1" depart="482" />
<vehicle id="Car_271" type="MotorCycle" route="route_2" depart="482" />
<vehicle id="Car_272" type="Car" route="route_2" depart="482" />
<vehicle id="Bus_273" type="MotorCycle" route="route_10" depart="482" />
<vehicle id="Bus_274" type="MotorCycle" route="route_1" depart="483" />
<vehicle id="Bus_275" type="Car" route="route_1" depart="483" />
<vehicle id="Auto_276" type="MotorCycle" route="route_2" depart="483" />
<vehicle id="Auto_277" type="Car" route="route_2" depart="483" />
<vehicle id="Car_278" type="MotorCycle" route="route_1" depart="484" />
<vehicle id="Auto_279" type="MotorCycle" route="route_1" depart="485" />
<vehicle id="MotorCycle_280" type="MotorCycle" route="route_4" depart="486" />
<vehicle id="Auto_281" type="MotorCycle" route="route_1" depart="487" />
<vehicle id="Bus_282" type="MotorCycle" route="route_2" depart="487" />
<vehicle id="Bus_283" type="Car" route="route_2" depart="487" />
<vehicle id="MotorCycle_284" type="MotorCycle" route="route_1" depart="489" />
<vehicle id="Auto_285" type="Auto" route="route_1" depart="490" />
<vehicle id="Auto_286" type="MotorCycle" route="route_1" depart="490" />
<vehicle id="Auto_287" type="MotorCycle" route="route_2" depart="490" />
<vehicle id="MotorCycle_288" type="MotorCycle" route="route_9" depart="490" />
<vehicle id="MotorCycle_289" type="Auto" route="route_10" depart="490" />
<vehicle id="MotorCycle_290" type="MotorCycle" route="route_10" depart="490" />
<vehicle id="Bus_291" type="MotorCycle" route="route_1" depart="491" />
<vehicle id="Auto_292" type="MotorCycle" route="route_2" depart="491" />
<vehicle id="MotorCycle_293" type="MotorCycle" route="route_7" depart="491" />
<vehicle id="Bus_294" type="MotorCycle" route="route_2" depart="492" />
<vehicle id="Bus_295" type="MotorCycle" route="route_4" depart="492" />
<vehicle id="Bus_296" type="Car" route="route_4" depart="492" />
<vehicle id="Car_297" type="MotorCycle" route="route_7" depart="493" />
<vehicle id="Car_298" type="MotorCycle" route="route_1" depart="494" />
<vehicle id="Auto_299" type="MotorCycle" route="route_2" depart="494" />
<vehicle id="Bus_300" type="MotorCycle" route="route_1" depart="495" />
<vehicle id="MotorCycle_301" type="Auto" route="route_8" depart="495" />
<vehicle id="MotorCycle_302" type="MotorCycle" route="route_2" depart="496" />
<vehicle id="Auto_303" type="MotorCycle" route="route_1" depart="497" />
<vehicle id="Auto_304" type="MotorCycle" route="route_2" depart="497" />
<vehicle id="Car_305" type="MotorCycle" route="route_3" depart="497" />
<vehicle id="Bus_306" type="MotorCycle" route="route_1" depart="498" />
<vehicle id="Car_307" type="MotorCycle" route="route_2" depart="498" />
<vehicle id="Car_308" type="MotorCycle" route="route_1" depart="499" />
<vehicle id="Car_309" type="MotorCycle" route="route_2" depart="499" />
<vehicle id="Car_310" type="Car" route="route_2" depart="499" />
<vehicle id="MotorCycle_311" type="MotorCycle" route="route_5" depart="499" />
<vehicle id="Bus_312" type="MotorCycle" route="route_7" depart="499" />
<vehicle id="MotorCycle_313" type="MotorCycle" route="route_10" depart="499" />
<vehicle id="Bus_314" type="MotorCycle" route="route_8" depart="500" />
<vehicle id="Car_315" type="MotorCycle" route="route_8" depart="506" />
<vehicle id="Auto_316" type="MotorCycle" route="route_1" depart="510" />
<vehicle id="Car_317" type="MotorCycle" route="route_5" depart="522" />
<vehicle id="MotorCycle_318" type="MotorCycle" route="route_2" depart="523" />
<vehicle id="MotorCycle_319" type="Car" route="route_2" depart="523" />
<vehicle id="Bus_320" type="MotorCycle" route="route_4" depart="524" />
<vehicle id="Bus_321" type="MotorCycle" route="route_7" depart="524" />
<vehicle id="Car_322" type="MotorCycle" route="route_1" depart="527" />
<vehicle id="Bus_323" type="MotorCycle" route="route_2" depart="530" />
<vehicle id="Bus_324" type="MotorCycle" route="route_10" depart="532" />
<vehicle id="MotorCycle_325" type="MotorCycle" route="route_1" depart="534" />
<vehicle id="Bus_326" type="MotorCycle" route="route_1" depart="539" />
<vehicle id="Bus_327" type="Car" route="route_1" depart="539" />
<vehicle id="Car_328" type="MotorCycle" route="route_3" depart="549" />
<vehicle id="Bus_329" type="MotorCycle" route="route_2" depart="555" />
<vehicle id="Bus_330" type="MotorCycle" route="route_6" depart="560" />
<vehicle id="Bus_331" type="Car" route="route_6" depart="560" />
<vehicle id="Bus_332" type="MotorCycle" route="route_4" depart="567" />
<vehicle id="Car_333" type="MotorCycle" route="route_1" depart="569" />
<vehicle id="MotorCycle_334" type="MotorCycle" route="route_3" depart="574" />
<vehicle id="MotorCycle_335" type="Car" route="route_3" depart="574" />
<vehicle id="Auto_336" type="MotorCycle" route="route_10" depart="575" />
<vehicle id="Auto_337" type="Car" route="route_10" depart="575" />
<vehicle id="MotorCycle_338" type="Car" route="route_3" depart="582" />
<vehicle id="Car_339" type="MotorCycle" route="route_5" depart="583" />
<vehicle id="Car_340" type="Car" route="route_2" depart="598" />
<vehicle id="Auto_341" type="Auto" route="route_7" depart="598" />
<vehicle id="Auto_342" type="MotorCycle" route="route_7" depart="598" />
<vehicle id="Bus_343" type="MotorCycle" route="route_10" depart="599" />
<vehicle id="Bus_344" type="MotorCycle" route="route_2" depart="603" />
<vehicle id="Bus_345" type="MotorCycle" route="route_1" depart="619" />
<vehicle id="Auto_346" type="Car" route="route_2" depart="619" />
<vehicle id="MotorCycle_347" type="MotorCycle" route="route_2" depart="626" />
<vehicle id="Bus_348" type="MotorCycle" route="route_6" depart="630" />
<vehicle id="Car_349" type="MotorCycle" route="route_7" depart="632" />
<vehicle id="MotorCycle_350" type="MotorCycle" route="route_8" depart="632" />
<vehicle id="Bus_351" type="MotorCycle" route="route_9" depart="632" />
<vehicle id="Auto_352" type="MotorCycle" route="route_4" depart="639" />
<vehicle id="Auto_353" type="Car" route="route_4" depart="639" />
<vehicle id="MotorCycle_354" type="MotorCycle" route="route_3" depart="641" />
<vehicle id="MotorCycle_355" type="MotorCycle" route="route_8" depart="649" />
<vehicle id="Bus_356" type="Auto" route="route_7" depart="655" />
<vehicle id="Bus_357" type="MotorCycle" route="route_7" depart="655" />
<vehicle id="Auto_358" type="MotorCycle" route="route_7" depart="660" />
<vehicle id="MotorCycle_359" type="MotorCycle" route="route_5" depart="661" />
<vehicle id="MotorCycle_360" type="Auto" route="route_6" depart="662" />
<vehicle id="MotorCycle_361" type="MotorCycle" route="route_6" depart="662" />
<vehicle id="MotorCycle_362" type="Car" route="route_6" depart="662" />
<vehicle id="Auto_363" type="MotorCycle" route="route_1" depart="665" />
<vehicle id="MotorCycle_364" type="Auto" route="route_4" depart="676" />
<vehicle id="MotorCycle_365" type="MotorCycle" route="route_4" depart="676" />
<vehicle id="Auto_366" type="MotorCycle" route="route_5" depart="678" />
<vehicle id="Bus_367" type="MotorCycle" route="route_5" depart="682" />
<vehicle id="Car_368" type="MotorCycle" route="route_9" depart="682" />
<vehicle id="Car_369" type="MotorCycle" route="route_6" depart="685" />
<vehicle id="Car_370" type="MotorCycle" route="route_9" depart="686" />
<vehicle id="MotorCycle_371" type="Auto" route="route_10" depart="686" />
<vehicle id="MotorCycle_372" type="MotorCycle" route="route_5" depart="691" />
<vehicle id="MotorCycle_373" type="MotorCycle" route="route_1" depart="692" />
<vehicle id="Car_374" type="MotorCycle" route="route_2" depart="693" />