<routes>
<vType id="Bus" accel="0.6" decel="3.5" sigma="0.5" length="10.1" minGap="1.0" maxSpeed="16.67" carFollowModel="Wiedemann" guiShape="bus" width="2.45" latAlignment="left" laneChangeModel="SL2015" lcStrategic="0.5" lcCooperative="0.0"/>
<vType id="Auto" accel="0.7" decel="4.5" sigma="0.5" length="2.6" minGap="0.3" maxSpeed="16" carFollowModel="Wiedemann" guiShape="passenger/sedan" width="1.25" latAlignment="left" laneChangeModel="SL2015" lcStrategic="0.5" lcCooperative="0.0" />
<vType id="MotorCycle" accel="0.9" decel="3.5" sigma="0.5" length="1.85" minGap="0.15"  carFollowModel="Wiedemann" maxSpeed="17" guiShape="motorcycle" width="0.7" latAlignment="left" laneChangeModel="SL2015" lcStrategic="0.5" lcCooperative="0.0"/>
<vType id="Car" accel="0.8" decel="4.5" sigma="0.5" length="3.6" minGap="0.5" maxSpeed="40" carFollowModel="Wiedemann" guiShape="passenger" width="1.5" latAlignment="left" laneChangeModel="SL2015" lcStrategic="0.5" lcCooperative="0.0"/>
<vType id="emergency" accel="2.8" decel="5.5" sigma="0.5" length="3.6" minGap="0.5" maxSpeed="120.6" carFollowModel="Wiedemann" guiShape="emergency" width="1.5" latAlignment="left" laneChangeModel="SL2015" lcStrategic="0.5" lcCooperative="0.0" vClass="emergency" speedFactor="1.9" jmDriveAfterRedTime="300" jmDriveAfterRedSpeed="5.56">
<param key="has.bluelight.device" value="true"/>
<param key="has.fcd.device" value="true"/> 
</vType>
	<route id="route_0" edges="78[0] 56a 56b 78[1][1]" />
	<route id="route_1" edges="78[0] 56a 56b 78[1][1] 189[0] 189[1][0]+20000 189[1][1] 188 87[0] 20001+87[1][0] 87[1][1] m90 89[0] 20002+89[1][0] 89[1][1] 91 186 109[0] 109[1][0]+20003 109[1][1] 116 46 134 134b -gneE0" />
        <route id="route_2" edges="gneE0 133 31 115 110 185 92 90 m91 88 187 190 77[0] 77[1][1] " />
        <route id="route_3" edges="78[0] 56a 56b 79 68 11 84" />
        <route id="route_4" edges="78[0] 56a 56b 21a 21b " /> 
        <route id="route_5" edges="75 77[0] 79 68 11 84 " />
        <route id="route_6" edges="75 77[0] 21a 21b" />
        <route id="route_7" edges="gneE0 133 31 201 201c 204a[0] " />
        <route id="route_8" edges="gneE0 133 31 113 209" />
        <route id="route_9" edges="119 116 46 113 209" />
        <route id="route_10" edges="119 116 46 201 201c 204a[0]" />
        <route id="route_11" edges="59" />
        <route id="route_12" edges="59" />
        <route id="route_13" edges="59" />
        <route id="route_14" edges="59" />
        <route id="route_15" edges="59" />
        <route id="route_16" edges="59" />
        <route id="route_17" edges="59" />
        <route id="route_18" edges="59" />
        <route id="route_19" edges="59" />
        <route id="route_20" edges="59" />
        <route id="route_21" edges="59" />
        <route id="route_22" edges="59" />
        <route id="route_23" edges="59" />

	<route id="route_24" edges="59"/>
<vehicle id="emergency_0" type="emergency" route="route_3" depart="0" />
<vehicle id="Bus_0" type="Bus" route="route_3" depart="0" />
<vehicle id="Car_0" type="Car" route="route_17" depart="0" />
<vehicle id="Auto_1" type="MotorCycle" route="route_6" depart="2" />
<vehicle id="MotorCycle_2" type="Car" route="route_9" depart="2" />
<vehicle id="Car_3" type="MotorCycle" route="route_1" depart="3" />
<vehicle id="Car_4" type="Car" route="route_1" depart="3" />
<vehicle id="Bus_5" type="MotorCycle" route="route_8" depart="3" />
<vehicle id="Car_6" type="MotorCycle" route="route_1" depart="4" />
<vehicle id="Car_7" type="Car" route="route_1" depart="4" />
<vehicle id="Car_8" type="MotorCycle" route="route_10" depart="6" />
<vehicle id="Car_9" type="Car" route="route_10" depart="6" />
<vehicle id="Bus_10" type="MotorCycle" route="route_3" depart="7" />
<vehicle id="Car_11" type="MotorCycle" route="route_4" depart="8" />
<vehicle id="Car_12" type="MotorCycle" route="route_7" depart="8" />
<vehicle id="Car_13" type="MotorCycle" route="route_2" depart="11" />
<vehicle id="MotorCycle_14" type="MotorCycle" route="route_8" depart="11" />
<vehicle id="Car_15" type="MotorCycle" route="route_1" depart="12" />
<vehicle id="Car_16" type="MotorCycle" route="route_7" depart="12" />
<vehicle id="Car_17" type="Car" route="route_7" depart="12" />
<vehicle id="Auto_18" type="MotorCycle" route="route_2" depart="13" />
<vehicle id="MotorCycle_19" type="MotorCycle" route="route_3" depart="13" />
<vehicle id="Auto_20" type="MotorCycle" route="route_2" depart="14" />
<vehicle id="Car_21" type="MotorCycle" route="route_2" depart="15" />
<vehicle id="Auto_22" type="MotorCycle" route="route_7" depart="17" />
<vehicle id="Car_23" type="MotorCycle" route="route_1" depart="18" />
<vehicle id="MotorCycle_24" type="MotorCycle" route="route_3" depart="18" />
<vehicle id="Bus_25" type="MotorCycle" route="route_1" depart="21" />
<vehicle id="Car_26" type="MotorCycle" route="route_3" depart="21" />
<vehicle id="MotorCycle_27" type="MotorCycle" route="route_1" depart="22" />
<vehicle id="MotorCycle_28" type="Car" route="route_1" depart="22" />
<vehicle id="Bus_29" type="MotorCycle" route="route_2" depart="22" />
<vehicle id="MotorCycle_30" type="MotorCycle" route="route_9" depart="23" />
<vehicle id="Auto_31" type="Bus" route="route_1" depart="24" />
<vehicle id="Auto_32" type="MotorCycle" route="route_1" depart="24" />
<vehicle id="Bus_33" type="MotorCycle" route="route_1" depart="25" />
<vehicle id="Bus_34" type="Car" route="route_1" depart="25" />
<vehicle id="MotorCycle_35" type="MotorCycle" route="route_4" depart="25" />
<vehicle id="Auto_36" type="MotorCycle" route="route_7" depart="26" />
<vehicle id="Bus_37" type="MotorCycle" route="route_10" depart="27" />
<vehicle id="MotorCycle_38" type="MotorCycle" route="route_2" depart="28" />
<vehicle id="Bus_39" type="MotorCycle" route="route_5" depart="30" />
<vehicle id="Bus_40" type="MotorCycle" route="route_5" depart="32" />
<vehicle id="Bus_41" type="MotorCycle" route="route_2" depart="34" />
<vehicle id="Auto_42" type="MotorCycle" route="route_1" depart="38" />
<vehicle id="Auto_43" type="Car" route="route_1" depart="38" />
<vehicle id="MotorCycle_44" type="MotorCycle" route="route_2" depart="39" />
<vehicle id="Bus_45" type="MotorCycle" route="route_2" depart="42" />
<vehicle id="MotorCycle_46" type="Auto" route="route_6" depart="43" />
<vehicle id="MotorCycle_47" type="MotorCycle" route="route_6" depart="43" />
<vehicle id="Auto_48" type="MotorCycle" route="route_2" depart="44" />
<vehicle id="Auto_49" type="MotorCycle" route="route_8" depart="44" />
<vehicle id="MotorCycle_50" type="MotorCycle" route="route_5" depart="46" />
<vehicle id="Auto_51" type="MotorCycle" route="route_2" depart="47" />
<vehicle id="Bus_52" type="MotorCycle" route="route_9" depart="47" />
<vehicle id="Auto_53" type="MotorCycle" route="route_7" depart="55" />
<vehicle id="MotorCycle_54" type="MotorCycle" route="route_1" depart="56" />
<vehicle id="Auto_55" type="MotorCycle" route="route_19" depart="64" />
<vehicle id="Auto_56" type="Car" route="route_19" depart="64" />
<vehicle id="MotorCycle_57" type="Auto" route="route_2" depart="66" />
<vehicle id="Bus_58" type="Car" route="route_7" depart="77" />
<vehicle id="Car_59" type="MotorCycle" route="route_2" depart="80" />
<vehicle id="MotorCycle_60" type="MotorCycle" route="route_7" depart="81" />
<vehicle id="Auto_61" type="Auto" route="route_8" depart="83" />
<vehicle id="Auto_62" type="MotorCycle" route="route_8" depart="83" />
<vehicle id="Bus_63" type="MotorCycle" route="route_6" depart="84" />
<vehicle id="Car_64" type="MotorCycle" route="route_2" depart="85" />
<vehicle id="Car_65" type="MotorCycle" route="route_1" depart="86" />
<vehicle id="MotorCycle_66" type="MotorCycle" route="route_1" depart="87" />
<vehicle id="Bus_67" type="MotorCycle" route="route_6" depart="87" />
<vehicle id="MotorCycle_68" type="MotorCycle" route="route_10" depart="95" />
<vehicle id="Bus_69" type="MotorCycle" route="route_2" depart="99" />
<vehicle id="Auto_70" type="MotorCycle" route="route_8" depart="99" />
<vehicle id="Car_71" type="MotorCycle" route="route_9" depart="99" />
<vehicle id="Auto_72" type="MotorCycle" route="route_4" depart="116" />
<vehicle id="MotorCycle_73" type="MotorCycle" route="route_1" depart="117" />
<vehicle id="Auto_74" type="Auto" route="route_3" depart="119" />
<vehicle id="Auto_75" type="Car" route="route_3" depart="119" />
<vehicle id="MotorCycle_76" type="MotorCycle" route="route_1" depart="123" />
<vehicle id="Bus_77" type="Auto" route="route_2" depart="126" />
<vehicle id="Bus_78" type="MotorCycle" route="route_2" depart="126" />
<vehicle id="Car_79" type="MotorCycle" route="route_10" depart="134" />
<vehicle id="Auto_80" type="MotorCycle" route="route_1" depart="137" />
<vehicle id="Auto_81" type="MotorCycle" route="route_2" depart="139" />
<vehicle id="Auto_82" type="MotorCycle" route="route_6" depart="139" />
<vehicle id="Auto_83" type="MotorCycle" route="route_2" depart="143" />
<vehicle id="Auto_84" type="MotorCycle" route="route_10" depart="144" />
<vehicle id="Bus_85" type="MotorCycle" route="route_8" depart="149" />
<vehicle id="Car_86" type="MotorCycle" route="route_7" depart="151" />
<vehicle id="Auto_87" type="MotorCycle" route="route_5" depart="155" />
<vehicle id="Auto_88" type="Car" route="route_5" depart="162" />
<vehicle id="Car_89" type="MotorCycle" route="route_2" depart="164" />
<vehicle id="Bus_90" type="MotorCycle" route="route_6" depart="170" />
<vehicle id="Bus_91" type="MotorCycle" route="route_1" depart="183" />
<vehicle id="Bus_92" type="Car" route="route_1" depart="183" />
<vehicle id="Car_93" type="MotorCycle" route="route_3" depart="187" />
<vehicle id="Bus_94" type="MotorCycle" route="route_9" depart="187" />
<vehicle id="Bus_95" type="MotorCycle" route="route_3" depart="191" />
<vehicle id="Car_96" type="MotorCycle" route="route_7" depart="192" />
<vehicle id="Car_97" type="Car" route="route_7" depart="192" />
<vehicle id="MotorCycle_98" type="MotorCycle" route="route_1" depart="194" />
<vehicle id="MotorCycle_99" type="Car" route="route_1" depart="194" />
<vehicle id="Auto_100" type="Auto" route="route_3" depart="198" />
<vehicle id="Auto_101" type="MotorCycle" route="route_3" depart="198" />
<vehicle id="Car_102" type="MotorCycle" route="route_2" depart="201" />
<vehicle id="Car_103" type="Car" route="route_2" depart="201" />
<vehicle id="Auto_104" type="Auto" route="route_6" depart="206" />
<vehicle id="Auto_105" type="MotorCycle" route="route_6" depart="206" />
<vehicle id="Auto_106" type="Car" route="route_6" depart="206" />
<vehicle id="MotorCycle_107" type="MotorCycle" route="route_9" depart="217" />
<vehicle id="Auto_108" type="MotorCycle" route="route_3" depart="220" />
<vehicle id="Car_109" type="MotorCycle" route="route_5" depart="220" />
<vehicle id="Car_110" type="MotorCycle" route="route_1" depart="222" />
<vehicle id="Auto_111" type="MotorCycle" route="route_2" depart="225" />
<vehicle id="Bus_112" type="MotorCycle" route="route_3" depart="225" />
<vehicle id="Car_113" type="MotorCycle" route="route_10" depart="228" />
<vehicle id="MotorCycle_114" type="MotorCycle" route="route_9" depart="233" />
<vehicle id="MotorCycle_115" type="MotorCycle" route="route_4" depart="236" />
<vehicle id="Auto_116" type="MotorCycle" route="route_2" depart="237" />
<vehicle id="MotorCycle_117" type="MotorCycle" route="route_2" depart="238" />
<vehicle id="MotorCycle_118" type="MotorCycle" route="route_7" depart="240" />
<vehicle id="MotorCycle_119" type="MotorCycle" route="route_9" depart="241" />
<vehicle id="Bus_120" type="MotorCycle" route="route_2" depart="252" />
<vehicle id="Car_121" type="MotorCycle" route="route_5" depart="253" />
<vehicle id="Bus_122" type="Car" route="route_1" depart="254" />
<vehicle id="MotorCycle_123" type="MotorCycle" route="route_7" depart="254" />
<vehicle id="Car_124" type="MotorCycle" route="route_1" depart="258" />
<vehicle id="MotorCycle_125" type="MotorCycle" route="route_1" depart="260" />
<vehicle id="Bus_126" type="MotorCycle" route="route_2" depart="261" />
<vehicle id="Auto_127" type="MotorCycle" route="route_9" depart="266" />
<vehicle id="Bus_128" type="MotorCycle" route="route_4" depart="269" />
<vehicle id="Auto_129" type="MotorCycle" route="route_1" depart="270" />
<vehicle id="Car_130" type="MotorCycle" route="route_2" depart="270" />
<vehicle id="Bus_131" type="MotorCycle" route="route_1" depart="277" />
<vehicle id="Bus_132" type="Car" route="route_1" depart="277" />
<vehicle id="Auto_133" type="MotorCycle" route="route_8" depart="277" />
<vehicle id="MotorCycle_134" type="Auto" route="route_4" depart="280" />
<vehicle id="MotorCycle_135" type="MotorCycle" route="route_4" depart="280" />
<vehicle id="Car_136" type="MotorCycle" route="route_4" depart="283" />
<vehicle id="MotorCycle_137" type="MotorCycle" route="route_4" depart="284" />
<vehicle id="Auto_138" type="MotorCycle" route="route_1" depart="285" />
<vehicle id="Bus_139" type="MotorCycle" route="route_5" depart="287" />
<vehicle id="Car_140" type="MotorCycle" route="route_1" depart="288" />
<vehicle id="Car_141" type="Car" route="route_1" depart="288" />
<vehicle id="Car_142" type="MotorCycle" route="route_6" depart="289" />
<vehicle id="Bus_143" type="MotorCycle" route="route_3" depart="300" />
<vehicle id="Bus_144" type="Car" route="route_3" depart="300" />
<vehicle id="Auto_145" type="MotorCycle" route="route_2" depart="312" />
<vehicle id="Car_146" type="MotorCycle" route="route_1" depart="317" />
<vehicle id="Car_147" type="Car" route="route_1" depart="317" />
<vehicle id="MotorCycle_148" type="MotorCycle" route="route_1" depart="320" />
<vehicle id="Car_149" type="MotorCycle" route="route_5" depart="320" />
<vehicle id="Car_150" type="MotorCycle" route="route_5" depart="321" />
<vehicle id="Car_151" type="Auto" route="route_2" depart="328" />
<vehicle id="Car_152" type="MotorCycle" route="route_2" depart="328" />
<vehicle id="Car_153" type="Car" route="route_2" depart="328" />
<vehicle id="Car_154" type="MotorCycle" route="route_5" depart="329" />
<vehicle id="Car_155" type="Car" route="route_5" depart="329" />
<vehicle id="Auto_156" type="MotorCycle" route="route_3" depart="331" />
<vehicle id="Auto_157" type="MotorCycle" route="route_2" depart="333" />
<vehicle id="Auto_158" type="Car" route="route_2" depart="333" />
<vehicle id="Car_159" type="Auto" route="route_9" depart="336" />
<vehicle id="Car_160" type="MotorCycle" route="route_9" depart="336" />
<vehicle id="Car_161" type="MotorCycle" route="route_5" depart="340" />
<vehicle id="MotorCycle_162" type="MotorCycle" route="route_1" depart="342" />
<vehicle id="Car_163" type="MotorCycle" route="route_8" depart="351" />
<vehicle id="Auto_164" type="MotorCycle" route="route_1" depart="352" />
<vehicle id="Auto_165" type="MotorCycle" route="route_1" depart="353" />
<vehicle id="Auto_166" type="Car" route="route_1" depart="353" />
<vehicle id="Car_167" type="MotorCycle" route="route_10" depart="354" />
<vehicle id="MotorCycle_168" type="MotorCycle" route="route_2" depart="356" />
<vehicle id="MotorCycle_169" type="MotorCycle" route="route_9" depart="358" />
<vehicle id="Car_170" type="MotorCycle" route="route_5" depart="360" />
<vehicle id="MotorCycle_171" type="MotorCycle" route="route_10" depart="360" />
<vehicle id="MotorCycle_172" type="Car" route="route_10" depart="360" />
<vehicle id="Auto_173" type="Bus" route="route_1" depart="365" />
<vehicle id="Auto_174" type="MotorCycle" route="route_1" depart="365" />
<vehicle id="Bus_175" type="MotorCycle" route="route_4" depart="365" />
<vehicle id="MotorCycle_176" type="MotorCycle" route="route_4" depart="371" />
<vehicle id="Auto_177" type="MotorCycle" route="route_4" depart="372" />
<vehicle id="Auto_178" type="MotorCycle" route="route_4" depart="373" />
<vehicle id="Auto_179" type="Car" route="route_4" depart="373" />
<vehicle id="Bus_180" type="MotorCycle" route="route_1" depart="374" />
<vehicle id="Bus_181" type="Car" route="route_1" depart="374" />
<vehicle id="MotorCycle_182" type="MotorCycle" route="route_6" depart="376" />
<vehicle id="Auto_183" type="MotorCycle" route="route_3" depart="380" />
<vehicle id="MotorCycle_184" type="MotorCycle" route="route_9" depart="386" />
<vehicle id="Bus_185" type="MotorCycle" route="route_6" depart="390" />
<vehicle id="MotorCycle_186" type="MotorCycle" route="route_10" depart="393" />
<vehicle id="Auto_187" type="MotorCycle" route="route_1" depart="394" />
<vehicle id="MotorCycle_188" type="MotorCycle" route="route_1" depart="397" />
<vehicle id="Auto_189" type="MotorCycle" route="route_2" depart="399" />
<vehicle id="Auto_190" type="Car" route="route_2" depart="399" />
<vehicle id="MotorCycle_191" type="Car" route="route_7" depart="405" />
<vehicle id="Auto_192" type="MotorCycle" route="route_2" depart="410" />
<vehicle id="Auto_193" type="MotorCycle" route="route_1" depart="419" />
<vehicle id="Bus_194" type="MotorCycle" route="route_2" depart="421" />
<vehicle id="Bus_195" type="Auto" route="route_2" depart="424" />
<vehicle id="Car_196" type="Auto" route="route_9" depart="429" />
<vehicle id="Car_197" type="MotorCycle" route="route_9" depart="429" />
<vehicle id="MotorCycle_198" type="MotorCycle" route="route_1" depart="431" />
<vehicle id="Bus_199" type="MotorCycle" route="route_1" depart="437" />
<vehicle id="Bus_200" type="Car" route="route_1" depart="437" />
<vehicle id="MotorCycle_201" type="MotorCycle" route="route_6" depart="441" />
<vehicle id="Bus_202" type="MotorCycle" route="route_7" depart="444" />
<vehicle id="Bus_203" type="Car" route="route_7" depart="444" />
<vehicle id="Car_204" type="Auto" route="route_3" depart="450" />
<vehicle id="Car_205" type="MotorCycle" route="route_3" depart="450" />
<vehicle id="MotorCycle_206" type="MotorCycle" route="route_1" depart="451" />
<vehicle id="MotorCycle_207" type="MotorCycle" route="route_2" depart="451" />
<vehicle id="MotorCycle_208" type="MotorCycle" route="route_1" depart="453" />
<vehicle id="MotorCycle_209" type="Car" route="route_1" depart="453" />
<vehicle id="MotorCycle_210" type="MotorCycle" route="route_5" depart="453" />
<vehicle id="MotorCycle_211" type="MotorCycle" route="route_7" depart="453" />
<vehicle id="Car_212" type="MotorCycle" route="route_1" depart="454" />
<vehicle id="Bus_213" type="MotorCycle" route="route_2" depart="454" />
<vehicle id="Bus_214" type="Car" route="route_2" depart="454" />
<vehicle id="Auto_215" type="MotorCycle" route="route_5" depart="454" />
<vehicle id="Car_216" type="MotorCycle" route="route_9" depart="454" />
<vehicle id="Bus_217" type="MotorCycle" route="route_10" depart="454" />
<vehicle id="MotorCycle_218" type="MotorCycle" route="route_8" depart="455" />
<vehicle id="MotorCycle_219" type="Car" route="route_8" depart="455" />
<vehicle id="Car_220" type="MotorCycle" route="route_1" depart="456" />
<vehicle id="Bus_221" type="MotorCycle" route="route_2" depart="456" />
<vehicle id="Bus_222" type="Car" route="route_2" depart="456" />
<vehicle id="Auto_223" type="MotorCycle" route="route_2" depart="457" />
<vehicle id="Bus_224" type="MotorCycle" route="route_6" depart="457" />
<vehicle id="Car_225" type="MotorCycle" route="route_1" depart="458" />
<vehicle id="Car_226" type="Car" route="route_1" depart="458" />
<vehicle id="Bus_227" type="MotorCycle" route="route_1" depart="459" />
<vehicle id="MotorCycle_228" type="MotorCycle" route="route_2" depart="459" />
<vehicle id="Car_229" type="MotorCycle" route="route_1" depart="460" />
<vehicle id="Bus_230" type="MotorCycle" route="route_2" depart="460" />
<vehicle id="Bus_231" type="Car" route="route_2" depart="460" />
<vehicle id="Bus_232" type="MotorCycle" route="route_7" depart="460" />
<vehicle id="Bus_233" type="Car" route="route_7" depart="460" />
<vehicle id="Bus_234" type="MotorCycle" route="route_1" depart="461" />
<vehicle id="Auto_235" type="MotorCycle" route="route_1" depart="462" />
<vehicle id="Auto_236" type="MotorCycle" route="route_3" depart="462" />
<vehicle id="Car_237" type="MotorCycle" route="route_7" depart="462" />
<vehicle id="MotorCycle_238" type="MotorCycle" route="route_1" depart="463" />
<vehicle id="Auto_239" type="MotorCycle" route="route_2" depart="463" />
<vehicle id="Car_240" type="MotorCycle" route="route_1" depart="464" />
<vehicle id="Auto_241" type="MotorCycle" route="route_1" depart="465" />
<vehicle id="Bus_242" type="MotorCycle" route="route_2" depart="465" />
<vehicle id="Bus_243" type="MotorCycle" route="route_5" depart="465" />
<vehicle id="Bus_244" type="Car" route="route_5" depart="465" />
<vehicle id="Auto_245" type="MotorCycle" route="route_7" depart="465" />
<vehicle id="Auto_246" type="Car" route="route_7" depart="465" />
<vehicle id="Auto_247" type="MotorCycle" route="route_8" depart="465" />
<vehicle id="Auto_248" type="Car" route="route_8" depart="465" />
<vehicle id="Auto_249" type="MotorCycle" route="route_1" depart="466" />
<vehicle id="MotorCycle_250" type="MotorCycle" route="route_2" depart="466" />
<vehicle id="Car_251" type="MotorCycle" route="route_1" depart="467" />
<vehicle id="Car_252" type="MotorCycle" route="route_2" depart="468" />
<vehicle id="Car_253" type="Car" route="route_2" depart="468" />
<vehicle id="Bus_254" type="MotorCycle" route="route_1" depart="469" />
<vehicle id="Bus_255" type="Car" route="route_1" depart="469" />
<vehicle id="Bus_256" type="MotorCycle" route="route_2" depart="469" />
<vehicle id="Auto_257" type="MotorCycle" route="route_3" depart="469" />
<vehicle id="Car_258" type="MotorCycle" route="route_8" depart="469" />
<vehicle id="Bus_259" type="MotorCycle" route="route_1" depart="470" />
<vehicle id="Auto_260" type="MotorCycle" route="route_2" depart="470" />
<vehicle id="Auto_261" type="Car" route="route_2" depart="470" />
<vehicle id="Bus_262" type="MotorCycle" route="route_1" depart="471" />
<vehicle id="Bus_263" type="MotorCycle" route="route_2" depart="471" />
<vehicle id="Bus_264" type="Car" route="route_2" depart="471" />
<vehicle id="MotorCycle_265" type="Auto" route="route_1" depart="472" />
<vehicle id="MotorCycle_266" type="MotorCycle" route="route_1" depart="472" />
<vehicle id="MotorCycle_267" type="Car" route="route_1" depart="472" />
<vehicle id="Bus_268" type="MotorCycle" route="route_2" depart="472" />
<vehicle id="MotorCycle_269" type="MotorCycle" route="route_2" depart="473" />
<vehicle id="Auto_270" type="MotorCycle" route="route_4" depart="473" />
<vehicle id="Bus_271" type="MotorCycle" route="route_1" depart="474" />
<vehicle id="Bus_272" type="MotorCycle" route="route_2" depart="474" />
<vehicle id="Car_273" type="MotorCycle" route="route_7" depart="474" />
<vehicle id="MotorCycle_274" type="MotorCycle" route="route_1" depart="475" />
<vehicle id="Auto_275" type="MotorCycle" route="route_2" depart="475" />
<vehicle id="Auto_276" type="Car" route="route_2" depart="475" />
<vehicle id="Auto_277" type="MotorCycle" route="route_1" depart="476" />
<vehicle id="Car_278" type="MotorCycle" route="route_3" depart="476" />
<vehicle id="MotorCycle_279" type="MotorCycle" route="route_1" depart="477" />
<vehicle id="Bus_280" type="MotorCycle" route="route_2" depart="478" />
<vehicle id="MotorCycle_281" type="MotorCycle" route="route_4" depart="478" />
<vehicle id="Bus_282" type="Auto" route="route_5" depart="479" />
<vehicle id="Bus_283" type="MotorCycle" route="route_5" depart="479" />
<vehicle id="MotorCycle_284" type="Auto" route="route_6" depart="479" />
<vehicle id="MotorCycle_285" type="MotorCycle" route="route_6" depart="479" />
<vehicle id="Auto_286" type="MotorCycle" route="route_9" depart="479" />
<vehicle id="Auto_287" type="Car" route="route_9" depart="479" />
<vehicle id="Car_288" type="MotorCycle" route="route_2" depart="480" />
<vehicle id="Auto_289" type="MotorCycle" route="route_5" depart="480" />
<vehicle id="Auto_290" type="Car" route="route_5" depart="480" />
<vehicle id="Auto_291" type="MotorCycle" route="route_6" depart="480" />
<vehicle id="Auto_292" type="Car" route="route_6" depart="480" />
<vehicle id="MotorCycle_293" type="MotorCycle" route="route_7" depart="480" />
<vehicle id="MotorCycle_294" type="Car" route="route_7" depart="480" />
<vehicle id="MotorCycle_295" type="Car" route="route_1" depart="481" />
<vehicle id="Bus_296" type="MotorCycle" route="route_2" depart="481" />
<vehicle id="Bus_297" type="MotorCycle" route="route_3" depart="481" />
<vehicle id="Car_298" type="MotorCycle" route="route_1" depart="482" />
<vehicle id="Car_299" type="Car" route="route_1" depart="482" />
<vehicle id="MotorCycle_300" type="MotorCycle" route="route_8" depart="482" />
<vehicle id="Car_301" type="MotorCycle" route="route_2" depart="483" />
<vehicle id="MotorCycle_302" type="MotorCycle" route="route_6" depart="483" />
<vehicle id="MotorCycle_303" type="MotorCycle" route="route_7" depart="484" />
<vehicle id="Car_304" type="MotorCycle" route="route_10" depart="484" />
<vehicle id="Car_305" type="MotorCycle" route="route_1" depart="485" />
<vehicle id="Auto_306" type="MotorCycle" route="route_2" depart="485" />
<vehicle id="MotorCycle_307" type="MotorCycle" route="route_7" depart="485" />
<vehicle id="Car_308" type="Auto" route="route_1" depart="486" />
<vehicle id="MotorCycle_309" type="MotorCycle" route="route_2" depart="486" />
<vehicle id="Auto_310" type="MotorCycle" route="route_7" depart="486" />
<vehicle id="MotorCycle_311" type="MotorCycle" route="route_9" depart="486" />
<vehicle id="MotorCycle_312" type="MotorCycle" route="route_2" depart="487" />
<vehicle id="MotorCycle_313" type="MotorCycle" route="route_1" depart="488" />
<vehicle id="MotorCycle_314" type="MotorCycle" route="route_2" depart="488" />
<vehicle id="Car_315" type="MotorCycle" route="route_1" depart="489" />
<vehicle id="Car_316" type="MotorCycle" route="route_2" depart="489" />
<vehicle id="Auto_317" type="MotorCycle" route="route_6" depart="489" />
<vehicle id="Car_318" type="MotorCycle" route="route_10" depart="489" />
<vehicle id="MotorCycle_319" type="MotorCycle" route="route_1" depart="490" />
<vehicle id="Bus_320" type="MotorCycle" route="route_2" depart="490" />
<vehicle id="Bus_321" type="MotorCycle" route="route_1" depart="491" />
<vehicle id="Bus_322" type="Car" route="route_1" depart="491" />
<vehicle id="Auto_323" type="MotorCycle" route="route_2" depart="491" />
<vehicle id="Auto_324" type="MotorCycle" route="route_9" depart="491" />
<vehicle id="Auto_325" type="Car" route="route_9" depart="491" />
<vehicle id="Auto_326" type="MotorCycle" route="route_2" depart="492" />
<vehicle id="Auto_327" type="Car" route="route_2" depart="492" />
<vehicle id="MotorCycle_328" type="MotorCycle" route="route_2" depart="493" />
<vehicle id="Car_329" type="MotorCycle" route="route_5" depart="493" />
<vehicle id="Car_330" type="Car" route="route_5" depart="493" />
<vehicle id="Bus_331" type="MotorCycle" route="route_1" depart="494" />
<vehicle id="MotorCycle_332" type="MotorCycle" route="route_2" depart="494" />
<vehicle id="Auto_333" type="MotorCycle" route="route_8" depart="494" />
<vehicle id="Car_334" type="MotorCycle" route="route_10" depart="494" />
<vehicle id="Car_335" type="Car" route="route_10" depart="494" />
<vehicle id="MotorCycle_336" type="MotorCycle" route="route_1" depart="495" />
<vehicle id="Auto_337" type="MotorCycle" route="route_2" depart="495" />
<vehicle id="Bus_338" type="MotorCycle" route="route_6" depart="495" />
<vehicle id="Bus_339" type="Car" route="route_6" depart="495" />
<vehicle id="Bus_340" type="MotorCycle" route="route_8" depart="495" />
<vehicle id="Car_341" type="MotorCycle" route="route_9" depart="495" />
<vehicle id="MotorCycle_342" type="MotorCycle" route="route_2" depart="496" />
<vehicle id="MotorCycle_343" type="Car" route="route_2" depart="496" />
<vehicle id="Auto_344" type="MotorCycle" route="route_9" depart="496" />
<vehicle id="Auto_345" type="Car" route="route_9" depart="496" />
<vehicle id="Auto_346" type="MotorCycle" route="route_10" depart="496" />
<vehicle id="Car_347" type="Auto" route="route_1" depart="497" />
<vehicle id="Car_348" type="MotorCycle" route="route_1" depart="497" />
<vehicle id="Car_349" type="Car" route="route_1" depart="497" />
<vehicle id="MotorCycle_350" type="MotorCycle" route="route_2" depart="497" />
<vehicle id="MotorCycle_351" type="MotorCycle" route="route_1" depart="498" />
<vehicle id="MotorCycle_352" type="Car" route="route_1" depart="498" />
<vehicle id="Bus_353" type="MotorCycle" route="route_1" depart="499" />
<vehicle id="Bus_354" type="MotorCycle" route="route_2" depart="499" />
<vehicle id="Auto_355" type="MotorCycle" route="route_7" depart="499" />
<vehicle id="MotorCycle_356" type="MotorCycle" route="route_2" depart="500" />
<vehicle id="Car_357" type="MotorCycle" route="route_8" depart="503" />
<vehicle id="Bus_358" type="MotorCycle" route="route_2" depart="504" />
<vehicle id="Auto_359" type="MotorCycle" route="route_2" depart="506" />
<vehicle id="Auto_360" type="MotorCycle" route="route_3" depart="509" />
<vehicle id="Auto_361" type="MotorCycle" route="route_5" depart="512" />
<vehicle id="MotorCycle_362" type="MotorCycle" route="route_2" depart="513" />
<vehicle id="Bus_363" type="MotorCycle" route="route_6" depart="519" />
<vehicle id="Bus_364" type="Auto" route="route_1" depart="521" />
<vehicle id="Bus_365" type="Car" route="route_1" depart="521" />
<vehicle id="MotorCycle_366" type="MotorCycle" route="route_5" depart="537" />
<vehicle id="MotorCycle_367" type="Car" route="route_5" depart="537" />
<vehicle id="Car_368" type="MotorCycle" route="route_8" depart="541" />
<vehicle id="Auto_369" type="Car" route="route_1" depart="542" />
<vehicle id="MotorCycle_370" type="MotorCycle" route="route_5" depart="549" />
<vehicle id="Bus_371" type="Auto" route="route_8" depart="550" />
<vehicle id="Car_372" type="MotorCycle" route="route_2" depart="553" />
<vehicle id="Bus_373" type="MotorCycle" route="route_4" depart="553" />
<vehicle id="Bus_374" type="MotorCycle" route="route_2" depart="558" />