<routes>
<vType id="Bus" accel="0.6" decel="3.5" sigma="0.5" length="10.1" minGap="1.0" maxSpeed="16.67" carFollowModel="Wiedemann" guiShape="bus" width="2.45" latAlignment="left" laneChangeModel="SL2015" lcStrategic="0.5" lcCooperative="0.0"/>
<vType id="Auto" accel="0.7" decel="4.5" sigma="0.5" length="2.6" minGap="0.3" maxSpeed="16" carFollowModel="Wiedemann" guiShape="passenger/sedan" width="1.25" latAlignment="left" laneChangeModel="SL2015" lcStrategic="0.5" lcCooperative="0.0" />
<vType id="MotorCycle" accel="0.9" decel="3.5" sigma="0.5" length="1.85" minGap="0.15"  carFollowModel="Wiedemann" maxSpeed="17" guiShape="motorcycle" width="0.7" latAlignment="left" laneChangeModel="SL2015" lcStrategic="0.5" lcCooperative="0.0"/>
<vType id="Car" accel="0.8" decel="4.5" sigma="0.5" length="3.6" minGap="0.5" maxSpeed="40" carFollowModel="Wiedemann" guiShape="passenger" width="1.5" latAlignment="left" laneChangeModel="SL2015" lcStrategic="0.5" lcCooperative="0.0"/>
<vType id="emergency" accel="2.8" decel="5.5" sigma="0.5" length="3.6" minGap="0.5" maxSpeed="120.6" carFollowModel="Wiedemann" guiShape="emergency" width="1.5" latAlignment="left" laneChangeModel="SL2015" lcStrategic="0.5" lcCooperative="0.0" vClass="emergency" speedFactor="1.9" jmDriveAfterRedTime="300" jmDriveAfterRedSpeed="5.56">
<param key="has.bluelight.device" value="true"/>
<param key="has.fcd.device" value="true"/> 
</vType>
	<route id="route_0" edges="78[0] 56a 56b 78[1][1]" />
	<route id="route_1" edges="78[0] 56a 56b 78[1][1] 189[0] 189[1][0]+20000 189[1][1] 188 87[0] 20001+87[1][0] 87[1][1] m90 89[0] 20002+89[1][0] 89[1][1] 91 186 109[0] 109[1][0]+20003 109[1][1] 116 46 134 134b -gneE0" />
        <route id="route_2" edges="gneE0 133 31 115 110 185 92 90 m91 88 187 190 77[0] 77[1][1] " />
        <route id="route_3" edges="78[0] 56a 56b 79 68 11 84" />
        <route id="route_4" edges="78[0] 56a 56b 21a 21b " /> 
        <route id="route_5" edges="75 77[0] 79 68 11 84 " />
        <route id="route_6" edges="75 77[0] 21a 21b" />
        <route id="route_7" edges="gneE0 133 31 201 201c 204a[0] " />
        <route id="route_8" edges="gneE0 133 31 113 209" />
        <route id="route_9" edges="119 116 46 113 209" />
        <route id="route_10" edges="119 116 46 201 201c 204a[0]" />
        <route id="route_11" edges="59" />
        <route id="route_12" edges="59" />
        <route id="route_13" edges="59" />
        <route id="route_14" edges="59" />
        <route id="route_15" edges="59" />
        <route id="route_16" edges="59" />
        <route id="route_17" edges="59" />
        <route id="route_18" edges="59" />
        <route id="route_19" edges="59" />
        <route id="route_20" edges="59" />
        <route id="route_21" edges="59" />
        <route id="route_22" edges="59" />
        <route id="route_23" edges="59" />

	<route id="route_24" edges="59"/>
<vehicle id="emergency_0" type="emergency" route="route_3" depart="0" />
<vehicle id="Bus_0" type="Bus" route="route_3" depart="0" />
<vehicle id="Car_0" type="Car" route="route_14" depart="0" />
<vehicle id="Car_1" type="MotorCycle" route="route_1" depart="1" />
<vehicle id="Bus_2" type="MotorCycle" route="route_1" depart="2" />
<vehicle id="Bus_3" type="MotorCycle" route="route_2" depart="5" />
<vehicle id="Auto_4" type="MotorCycle" route="route_2" depart="6" />
<vehicle id="MotorCycle_5" type="MotorCycle" route="route_1" depart="7" />
<vehicle id="MotorCycle_6" type="Car" route="route_1" depart="7" />
<vehicle id="MotorCycle_7" type="MotorCycle" route="route_2" depart="7" />
<vehicle id="Car_8" type="MotorCycle" route="route_5" depart="7" />
<vehicle id="Car_9" type="Car" route="route_5" depart="7" />
<vehicle id="Bus_10" type="MotorCycle" route="route_11" depart="7" />
<vehicle id="Car_11" type="MotorCycle" route="route_6" depart="9" />
<vehicle id="Auto_12" type="MotorCycle" route="route_10" depart="9" />
<vehicle id="Auto_13" type="Car" route="route_10" depart="9" />
<vehicle id="MotorCycle_14" type="MotorCycle" route="route_1" depart="11" />
<vehicle id="Car_15" type="MotorCycle" route="route_1" depart="12" />
<vehicle id="Auto_16" type="Auto" route="route_1" depart="13" />
<vehicle id="Auto_17" type="MotorCycle" route="route_2" depart="13" />
<vehicle id="Auto_18" type="MotorCycle" route="route_18" depart="13" />
<vehicle id="MotorCycle_19" type="Auto" route="route_1" depart="14" />
<vehicle id="MotorCycle_20" type="MotorCycle" route="route_1" depart="14" />
<vehicle id="MotorCycle_21" type="MotorCycle" route="route_1" depart="18" />
<vehicle id="Car_22" type="MotorCycle" route="route_2" depart="20" />
<vehicle id="Car_23" type="Auto" route="route_8" depart="20" />
<vehicle id="Car_24" type="MotorCycle" route="route_8" depart="20" />
<vehicle id="MotorCycle_25" type="MotorCycle" route="route_1" depart="25" />
<vehicle id="MotorCycle_26" type="Car" route="route_1" depart="25" />
<vehicle id="Car_27" type="MotorCycle" route="route_2" depart="28" />
<vehicle id="Bus_28" type="MotorCycle" route="route_2" depart="31" />
<vehicle id="Bus_29" type="Car" route="route_2" depart="31" />
<vehicle id="Bus_30" type="MotorCycle" route="route_2" depart="33" />
<vehicle id="Auto_31" type="MotorCycle" route="route_2" depart="35" />
<vehicle id="Auto_32" type="Car" route="route_2" depart="35" />
<vehicle id="Car_33" type="MotorCycle" route="route_1" depart="37" />
<vehicle id="Bus_34" type="MotorCycle" route="route_1" depart="42" />
<vehicle id="MotorCycle_35" type="MotorCycle" route="route_2" depart="42" />
<vehicle id="MotorCycle_36" type="Car" route="route_2" depart="42" />
<vehicle id="MotorCycle_37" type="Auto" route="route_4" depart="43" />
<vehicle id="MotorCycle_38" type="MotorCycle" route="route_4" depart="43" />
<vehicle id="Bus_39" type="MotorCycle" route="route_1" depart="44" />
<vehicle id="Auto_40" type="Bus" route="route_2" depart="44" />
<vehicle id="Auto_41" type="MotorCycle" route="route_2" depart="44" />
<vehicle id="Auto_42" type="Car" route="route_2" depart="44" />
<vehicle id="Car_43" type="MotorCycle" route="route_9" depart="44" />
<vehicle id="Car_44" type="MotorCycle" route="route_4" depart="45" />
<vehicle id="Car_45" type="MotorCycle" route="route_1" depart="47" />
<vehicle id="Bus_46" type="MotorCycle" route="route_4" depart="48" />
<vehicle id="Auto_47" type="MotorCycle" route="route_2" depart="49" />
<vehicle id="Auto_48" type="MotorCycle" route="route_5" depart="49" />
<vehicle id="Auto_49" type="Car" route="route_5" depart="49" />
<vehicle id="Auto_50" type="MotorCycle" route="route_1" depart="51" />
<vehicle id="Auto_51" type="Car" route="route_1" depart="51" />
<vehicle id="Car_52" type="MotorCycle" route="route_4" depart="53" />
<vehicle id="Car_53" type="MotorCycle" route="route_2" depart="60" />
<vehicle id="Car_54" type="Car" route="route_2" depart="60" />
<vehicle id="Car_55" type="MotorCycle" route="route_4" depart="61" />
<vehicle id="Car_56" type="Car" route="route_4" depart="61" />
<vehicle id="Bus_57" type="Bus" route="route_6" depart="67" />
<vehicle id="Bus_58" type="MotorCycle" route="route_6" depart="67" />
<vehicle id="Auto_59" type="MotorCycle" route="route_6" depart="68" />
<vehicle id="Auto_60" type="Car" route="route_6" depart="68" />
<vehicle id="Bus_61" type="MotorCycle" route="route_1" depart="70" />
<vehicle id="Auto_62" type="Bus" route="route_10" depart="70" />
<vehicle id="Auto_63" type="MotorCycle" route="route_10" depart="70" />
<vehicle id="Auto_64" type="MotorCycle" route="route_5" depart="73" />
<vehicle id="Car_65" type="MotorCycle" route="route_9" depart="73" />
<vehicle id="MotorCycle_66" type="Car" route="route_8" depart="74" />
<vehicle id="Bus_67" type="MotorCycle" route="route_2" depart="75" />
<vehicle id="MotorCycle_68" type="MotorCycle" route="route_2" depart="76" />
<vehicle id="Auto_69" type="MotorCycle" route="route_4" depart="76" />
<vehicle id="Car_70" type="MotorCycle" route="route_9" depart="81" />
<vehicle id="Car_71" type="Car" route="route_9" depart="81" />
<vehicle id="MotorCycle_72" type="MotorCycle" route="route_2" depart="85" />
<vehicle id="MotorCycle_73" type="Car" route="route_2" depart="85" />
<vehicle id="MotorCycle_74" type="MotorCycle" route="route_5" depart="93" />
<vehicle id="Car_75" type="Bus" route="route_6" depart="94" />
<vehicle id="Car_76" type="MotorCycle" route="route_6" depart="94" />
<vehicle id="Car_77" type="MotorCycle" route="route_10" depart="97" />
<vehicle id="MotorCycle_78" type="MotorCycle" route="route_7" depart="98" />
<vehicle id="MotorCycle_79" type="Car" route="route_7" depart="98" />
<vehicle id="Auto_80" type="MotorCycle" route="route_1" depart="100" />
<vehicle id="MotorCycle_81" type="Auto" route="route_1" depart="103" />
<vehicle id="Auto_82" type="MotorCycle" route="route_2" depart="106" />
<vehicle id="Car_83" type="MotorCycle" route="route_2" depart="107" />
<vehicle id="MotorCycle_84" type="MotorCycle" route="route_8" depart="107" />
<vehicle id="MotorCycle_85" type="Car" route="route_8" depart="107" />
<vehicle id="Car_86" type="MotorCycle" route="route_10" depart="108" />
<vehicle id="Bus_87" type="MotorCycle" route="route_8" depart="123" />
<vehicle id="Bus_88" type="Car" route="route_8" depart="123" />
<vehicle id="Car_89" type="Bus" route="route_4" depart="125" />
<vehicle id="Car_90" type="MotorCycle" route="route_4" depart="125" />
<vehicle id="Bus_91" type="MotorCycle" route="route_10" depart="125" />
<vehicle id="Bus_92" type="MotorCycle" route="route_6" depart="129" />
<vehicle id="Auto_93" type="Car" route="route_4" depart="132" />
<vehicle id="Auto_94" type="MotorCycle" route="route_7" depart="140" />
<vehicle id="MotorCycle_95" type="MotorCycle" route="route_2" depart="143" />
<vehicle id="MotorCycle_96" type="MotorCycle" route="route_3" depart="143" />
<vehicle id="MotorCycle_97" type="MotorCycle" route="route_9" depart="146" />
<vehicle id="MotorCycle_98" type="Car" route="route_9" depart="146" />
<vehicle id="MotorCycle_99" type="Car" route="route_1" depart="151" />
<vehicle id="Car_100" type="MotorCycle" route="route_4" depart="154" />
<vehicle id="MotorCycle_101" type="MotorCycle" route="route_1" depart="156" />
<vehicle id="MotorCycle_102" type="MotorCycle" route="route_3" depart="165" />
<vehicle id="Bus_103" type="MotorCycle" route="route_5" depart="171" />
<vehicle id="Auto_104" type="MotorCycle" route="route_3" depart="181" />
<vehicle id="Bus_105" type="MotorCycle" route="route_3" depart="192" />
<vehicle id="Car_106" type="MotorCycle" route="route_6" depart="192" />
<vehicle id="Bus_107" type="MotorCycle" route="route_7" depart="193" />
<vehicle id="Car_108" type="MotorCycle" route="route_10" depart="198" />
<vehicle id="Auto_109" type="MotorCycle" route="route_2" depart="202" />
<vehicle id="Auto_110" type="Car" route="route_2" depart="202" />
<vehicle id="MotorCycle_111" type="MotorCycle" route="route_1" depart="205" />
<vehicle id="MotorCycle_112" type="MotorCycle" route="route_2" depart="205" />
<vehicle id="Bus_113" type="MotorCycle" route="route_6" depart="212" />
<vehicle id="Bus_114" type="Car" route="route_6" depart="212" />
<vehicle id="Bus_115" type="Bus" route="route_11" depart="213" />
<vehicle id="Bus_116" type="MotorCycle" route="route_2" depart="214" />
<vehicle id="Bus_117" type="MotorCycle" route="route_8" depart="216" />
<vehicle id="Bus_118" type="MotorCycle" route="route_2" depart="217" />
<vehicle id="Car_119" type="MotorCycle" route="route_1" depart="223" />
<vehicle id="Car_120" type="MotorCycle" route="route_3" depart="225" />
<vehicle id="Bus_121" type="Car" route="route_9" depart="225" />
<vehicle id="MotorCycle_122" type="MotorCycle" route="route_1" depart="236" />
<vehicle id="MotorCycle_123" type="MotorCycle" route="route_9" depart="238" />
<vehicle id="MotorCycle_124" type="MotorCycle" route="route_4" depart="242" />
<vehicle id="Bus_125" type="MotorCycle" route="route_2" depart="248" />
<vehicle id="MotorCycle_126" type="Bus" route="route_9" depart="248" />
<vehicle id="MotorCycle_127" type="MotorCycle" route="route_9" depart="248" />
<vehicle id="MotorCycle_128" type="Car" route="route_9" depart="248" />
<vehicle id="Car_129" type="MotorCycle" route="route_7" depart="251" />
<vehicle id="Bus_130" type="MotorCycle" route="route_1" depart="257" />
<vehicle id="Auto_131" type="MotorCycle" route="route_9" depart="259" />
<vehicle id="Bus_132" type="MotorCycle" route="route_7" depart="260" />
<vehicle id="Auto_133" type="MotorCycle" route="route_10" depart="265" />
<vehicle id="Auto_134" type="MotorCycle" route="route_1" depart="268" />
<vehicle id="Bus_135" type="MotorCycle" route="route_5" depart="268" />
<vehicle id="Car_136" type="MotorCycle" route="route_1" depart="269" />
<vehicle id="Bus_137" type="MotorCycle" route="route_9" depart="279" />
<vehicle id="MotorCycle_138" type="MotorCycle" route="route_10" depart="280" />
<vehicle id="Auto_139" type="MotorCycle" route="route_7" depart="288" />
<vehicle id="Bus_140" type="MotorCycle" route="route_2" depart="291" />
<vehicle id="Auto_141" type="MotorCycle" route="route_4" depart="294" />
<vehicle id="Bus_142" type="MotorCycle" route="route_10" depart="295" />
<vehicle id="Car_143" type="MotorCycle" route="route_5" depart="301" />
<vehicle id="Bus_144" type="MotorCycle" route="route_1" depart="303" />
<vehicle id="Car_145" type="MotorCycle" route="route_7" depart="306" />
<vehicle id="Car_146" type="MotorCycle" route="route_8" depart="312" />
<vehicle id="Car_147" type="MotorCycle" route="route_6" depart="317" />
<vehicle id="Auto_148" type="MotorCycle" route="route_5" depart="318" />
<vehicle id="MotorCycle_149" type="MotorCycle" route="route_9" depart="319" />
<vehicle id="MotorCycle_150" type="MotorCycle" route="route_3" depart="322" />
<vehicle id="Car_151" type="MotorCycle" route="route_1" depart="324" />
<vehicle id="Auto_152" type="MotorCycle" route="route_6" depart="337" />
<vehicle id="Car_153" type="MotorCycle" route="route_4" depart="341" />
<vehicle id="Car_154" type="Car" route="route_4" depart="341" />
<vehicle id="Car_155" type="MotorCycle" route="route_4" depart="344" />
<vehicle id="Bus_156" type="Auto" route="route_9" depart="345" />
<vehicle id="Car_157" type="MotorCycle" route="route_10" depart="347" />
<vehicle id="Car_158" type="MotorCycle" route="route_1" depart="351" />
<vehicle id="Bus_159" type="MotorCycle" route="route_9" depart="351" />
<vehicle id="Bus_160" type="MotorCycle" route="route_10" depart="351" />
<vehicle id="Bus_161" type="MotorCycle" route="route_4" depart="365" />
<vehicle id="Bus_162" type="Car" route="route_4" depart="365" />
<vehicle id="Bus_163" type="MotorCycle" route="route_7" depart="369" />
<vehicle id="Bus_164" type="Car" route="route_7" depart="369" />
<vehicle id="Car_165" type="MotorCycle" route="route_7" depart="372" />
<vehicle id="MotorCycle_166" type="MotorCycle" route="route_3" depart="381" />
<vehicle id="Auto_167" type="MotorCycle" route="route_5" depart="383" />
<vehicle id="Auto_168" type="Car" route="route_5" depart="383" />
<vehicle id="Auto_169" type="MotorCycle" route="route_6" depart="384" />
<vehicle id="Auto_170" type="MotorCycle" route="route_4" depart="385" />
<vehicle id="Car_171" type="MotorCycle" route="route_7" depart="386" />
<vehicle id="MotorCycle_172" type="MotorCycle" route="route_4" depart="393" />
<vehicle id="MotorCycle_173" type="Car" route="route_7" depart="397" />
<vehicle id="Car_174" type="MotorCycle" route="route_8" depart="397" />
<vehicle id="Car_175" type="Car" route="route_8" depart="397" />
<vehicle id="Car_176" type="MotorCycle" route="route_9" depart="401" />
<vehicle id="Bus_177" type="MotorCycle" route="route_1" depart="403" />
<vehicle id="Bus_178" type="Car" route="route_1" depart="403" />
<vehicle id="Car_179" type="MotorCycle" route="route_2" depart="404" />
<vehicle id="Bus_180" type="MotorCycle" route="route_3" depart="405" />
<vehicle id="Bus_181" type="MotorCycle" route="route_10" depart="417" />
<vehicle id="Bus_182" type="Car" route="route_2" depart="418" />
<vehicle id="Car_183" type="MotorCycle" route="route_10" depart="418" />
<vehicle id="Car_184" type="MotorCycle" route="route_4" depart="421" />
<vehicle id="MotorCycle_185" type="MotorCycle" route="route_2" depart="428" />
<vehicle id="Auto_186" type="MotorCycle" route="route_1" depart="429" />
<vehicle id="Bus_187" type="MotorCycle" route="route_1" depart="431" />
<vehicle id="Bus_188" type="MotorCycle" route="route_2" depart="436" />
<vehicle id="Auto_189" type="MotorCycle" route="route_1" depart="438" />
<vehicle id="MotorCycle_190" type="MotorCycle" route="route_2" depart="438" />
<vehicle id="Car_191" type="MotorCycle" route="route_1" depart="442" />
<vehicle id="Auto_192" type="MotorCycle" route="route_7" depart="443" />
<vehicle id="Car_193" type="MotorCycle" route="route_4" depart="444" />
<vehicle id="Bus_194" type="Auto" route="route_1" depart="450" />
<vehicle id="Bus_195" type="MotorCycle" route="route_1" depart="450" />
<vehicle id="Bus_196" type="Car" route="route_1" depart="450" />
<vehicle id="Bus_197" type="MotorCycle" route="route_2" depart="450" />
<vehicle id="MotorCycle_198" type="MotorCycle" route="route_8" depart="450" />
<vehicle id="MotorCycle_199" type="MotorCycle" route="route_2" depart="451" />
<vehicle id="Car_200" type="MotorCycle" route="route_1" depart="452" />
<vehicle id="Car_201" type="Car" route="route_1" depart="452" />
<vehicle id="MotorCycle_202" type="MotorCycle" route="route_9" depart="452" />
<vehicle id="MotorCycle_203" type="Car" route="route_9" depart="452" />
<vehicle id="Bus_204" type="MotorCycle" route="route_1" depart="453" />
<vehicle id="MotorCycle_205" type="MotorCycle" route="route_2" depart="453" />
<vehicle id="Car_206" type="MotorCycle" route="route_10" depart="453" />
<vehicle id="Car_207" type="MotorCycle" route="route_2" depart="454" />
<vehicle id="Bus_208" type="MotorCycle" route="route_3" depart="454" />
<vehicle id="Car_209" type="MotorCycle" route="route_5" depart="454" />
<vehicle id="Bus_210" type="MotorCycle" route="route_9" depart="454" />
<vehicle id="Auto_211" type="MotorCycle" route="route_1" depart="456" />
<vehicle id="Auto_212" type="MotorCycle" route="route_3" depart="456" />
<vehicle id="Auto_213" type="Bus" route="route_6" depart="456" />
<vehicle id="Auto_214" type="MotorCycle" route="route_6" depart="456" />
<vehicle id="Auto_215" type="MotorCycle" route="route_1" depart="457" />
<vehicle id="Bus_216" type="MotorCycle" route="route_2" depart="457" />
<vehicle id="MotorCycle_217" type="MotorCycle" route="route_4" depart="457" />
<vehicle id="Bus_218" type="Bus" route="route_1" depart="458" />
<vehicle id="Bus_219" type="MotorCycle" route="route_1" depart="458" />
<vehicle id="Auto_220" type="MotorCycle" route="route_2" depart="458" />
<vehicle id="Car_221" type="MotorCycle" route="route_1" depart="459" />
<vehicle id="Auto_222" type="MotorCycle" route="route_2" depart="459" />
<vehicle id="Auto_223" type="MotorCycle" route="route_1" depart="460" />
<vehicle id="MotorCycle_224" type="MotorCycle" route="route_7" depart="460" />
<vehicle id="MotorCycle_225" type="MotorCycle" route="route_1" depart="461" />
<vehicle id="MotorCycle_226" type="Car" route="route_1" depart="461" />
<vehicle id="Auto_227" type="MotorCycle" route="route_2" depart="462" />
<vehicle id="MotorCycle_228" type="MotorCycle" route="route_4" depart="462" />
<vehicle id="MotorCycle_229" type="MotorCycle" route="route_5" depart="463" />
<vehicle id="Auto_230" type="MotorCycle" route="route_1" depart="464" />
<vehicle id="MotorCycle_231" type="MotorCycle" route="route_2" depart="464" />
<vehicle id="Car_232" type="MotorCycle" route="route_2" depart="465" />
<vehicle id="Auto_233" type="Car" route="route_9" depart="465" />
<vehicle id="Car_234" type="MotorCycle" route="route_1" depart="466" />
<vehicle id="Car_235" type="Car" route="route_1" depart="466" />
<vehicle id="Auto_236" type="MotorCycle" route="route_3" depart="466" />
<vehicle id="Bus_237" type="MotorCycle" route="route_6" depart="466" />
<vehicle id="Car_238" type="MotorCycle" route="route_1" depart="467" />
<vehicle id="Bus_239" type="MotorCycle" route="route_2" depart="467" />
<vehicle id="Auto_240" type="MotorCycle" route="route_6" depart="467" />
<vehicle id="Auto_241" type="Car" route="route_6" depart="467" />
<vehicle id="Bus_242" type="MotorCycle" route="route_2" depart="468" />
<vehicle id="Auto_243" type="MotorCycle" route="route_7" depart="468" />
<vehicle id="Car_244" type="MotorCycle" route="route_2" depart="469" />
<vehicle id="Auto_245" type="Auto" route="route_1" depart="470" />
<vehicle id="MotorCycle_246" type="MotorCycle" route="route_4" depart="470" />
<vehicle id="Auto_247" type="MotorCycle" route="route_10" depart="470" />
<vehicle id="MotorCycle_248" type="MotorCycle" route="route_1" depart="471" />
<vehicle id="MotorCycle_249" type="Car" route="route_1" depart="471" />
<vehicle id="Bus_250" type="MotorCycle" route="route_2" depart="471" />
<vehicle id="Car_251" type="MotorCycle" route="route_3" depart="471" />
<vehicle id="Car_252" type="MotorCycle" route="route_4" depart="471" />
<vehicle id="Auto_253" type="MotorCycle" route="route_7" depart="471" />
<vehicle id="MotorCycle_254" type="Auto" route="route_1" depart="472" />
<vehicle id="MotorCycle_255" type="MotorCycle" route="route_1" depart="472" />
<vehicle id="MotorCycle_256" type="Car" route="route_1" depart="472" />
<vehicle id="Auto_257" type="MotorCycle" route="route_5" depart="472" />
<vehicle id="Car_258" type="MotorCycle" route="route_9" depart="472" />
<vehicle id="MotorCycle_259" type="MotorCycle" route="route_1" depart="473" />
<vehicle id="MotorCycle_260" type="Car" route="route_1" depart="473" />
<vehicle id="Car_261" type="MotorCycle" route="route_2" depart="473" />
<vehicle id="Bus_262" type="MotorCycle" route="route_1" depart="474" />
<vehicle id="Bus_263" type="Car" route="route_1" depart="474" />
<vehicle id="Auto_264" type="MotorCycle" route="route_8" depart="474" />
<vehicle id="MotorCycle_265" type="MotorCycle" route="route_1" depart="475" />
<vehicle id="Auto_266" type="MotorCycle" route="route_2" depart="475" />
<vehicle id="MotorCycle_267" type="MotorCycle" route="route_1" depart="477" />
<vehicle id="Auto_268" type="MotorCycle" route="route_2" depart="477" />
<vehicle id="Auto_269" type="MotorCycle" route="route_1" depart="478" />
<vehicle id="Auto_270" type="MotorCycle" route="route_2" depart="478" />
<vehicle id="Auto_271" type="MotorCycle" route="route_1" depart="479" />
<vehicle id="Car_272" type="Bus" route="route_2" depart="479" />
<vehicle id="Car_273" type="MotorCycle" route="route_2" depart="479" />
<vehicle id="Bus_274" type="MotorCycle" route="route_1" depart="480" />
<vehicle id="Bus_275" type="MotorCycle" route="route_2" depart="480" />
<vehicle id="MotorCycle_276" type="MotorCycle" route="route_8" depart="480" />
<vehicle id="Auto_277" type="MotorCycle" route="route_8" depart="481" />
<vehicle id="MotorCycle_278" type="MotorCycle" route="route_2" depart="483" />
<vehicle id="MotorCycle_279" type="Car" route="route_2" depart="483" />
<vehicle id="MotorCycle_280" type="MotorCycle" route="route_9" depart="483" />
<vehicle id="Auto_281" type="MotorCycle" route="route_1" depart="484" />
<vehicle id="Car_282" type="MotorCycle" route="route_7" depart="484" />
<vehicle id="Car_283" type="Car" route="route_7" depart="484" />
<vehicle id="MotorCycle_284" type="MotorCycle" route="route_1" depart="485" />
<vehicle id="MotorCycle_285" type="Car" route="route_1" depart="485" />
<vehicle id="Bus_286" type="MotorCycle" route="route_2" depart="485" />
<vehicle id="MotorCycle_287" type="MotorCycle" route="route_4" depart="485" />
<vehicle id="MotorCycle_288" type="Car" route="route_4" depart="485" />
<vehicle id="MotorCycle_289" type="Auto" route="route_3" depart="486" />
<vehicle id="MotorCycle_290" type="Car" route="route_3" depart="486" />
<vehicle id="Auto_291" type="MotorCycle" route="route_1" depart="487" />
<vehicle id="Auto_292" type="MotorCycle" route="route_9" depart="487" />
<vehicle id="MotorCycle_293" type="MotorCycle" route="route_1" depart="488" />
<vehicle id="Car_294" type="MotorCycle" route="route_1" depart="489" />
<vehicle id="Car_295" type="Car" route="route_1" depart="489" />
<vehicle id="Bus_296" type="MotorCycle" route="route_2" depart="489" />
<vehicle id="MotorCycle_297" type="MotorCycle" route="route_7" depart="489" />
<vehicle id="Bus_298" type="MotorCycle" route="route_1" depart="490" />
<vehicle id="Car_299" type="MotorCycle" route="route_2" depart="490" />
<vehicle id="Bus_300" type="MotorCycle" route="route_2" depart="491" />
<vehicle id="Car_301" type="MotorCycle" route="route_1" depart="492" />
<vehicle id="Auto_302" type="MotorCycle" route="route_1" depart="493" />
<vehicle id="Bus_303" type="Auto" route="route_2" depart="493" />
<vehicle id="MotorCycle_304" type="MotorCycle" route="route_5" depart="494" />
<vehicle id="MotorCycle_305" type="Car" route="route_5" depart="494" />
<vehicle id="Bus_306" type="MotorCycle" route="route_8" depart="494" />
<vehicle id="Auto_307" type="MotorCycle" route="route_10" depart="494" />
<vehicle id="Auto_308" type="Car" route="route_10" depart="494" />
<vehicle id="Bus_309" type="MotorCycle" route="route_1" depart="495" />
<vehicle id="Bus_310" type="MotorCycle" route="route_2" depart="495" />
<vehicle id="Bus_311" type="MotorCycle" route="route_1" depart="496" />
<vehicle id="Auto_312" type="MotorCycle" route="route_1" depart="498" />
<vehicle id="Auto_313" type="MotorCycle" route="route_5" depart="499" />
<vehicle id="Auto_314" type="Car" route="route_8" depart="502" />
<vehicle id="Car_315" type="MotorCycle" route="route_9" depart="504" />
<vehicle id="Car_316" type="Car" route="route_9" depart="504" />
<vehicle id="Bus_317" type="MotorCycle" route="route_3" depart="510" />
<vehicle id="Bus_318" type="Car" route="route_3" depart="510" />
<vehicle id="Car_319" type="Car" route="route_9" depart="513" />
<vehicle id="Car_320" type="MotorCycle" route="route_1" depart="514" />
<vehicle id="Bus_321" type="MotorCycle" route="route_8" depart="516" />
<vehicle id="Bus_322" type="Car" route="route_8" depart="516" />
<vehicle id="Bus_323" type="MotorCycle" route="route_9" depart="517" />
<vehicle id="Bus_324" type="Car" route="route_9" depart="517" />
<vehicle id="Bus_325" type="MotorCycle" route="route_9" depart="520" />
<vehicle id="Auto_326" type="MotorCycle" route="route_8" depart="521" />
<vehicle id="Bus_327" type="MotorCycle" route="route_10" depart="525" />
<vehicle id="Auto_328" type="MotorCycle" route="route_7" depart="529" />
<vehicle id="Car_329" type="MotorCycle" route="route_5" depart="531" />
<vehicle id="Auto_330" type="MotorCycle" route="route_2" depart="532" />
<vehicle id="Bus_331" type="Car" route="route_7" depart="534" />
<vehicle id="Bus_332" type="MotorCycle" route="route_5" depart="535" />
<vehicle id="Bus_333" type="MotorCycle" route="route_1" depart="543" />
<vehicle id="MotorCycle_334" type="MotorCycle" route="route_1" depart="551" />
<vehicle id="Auto_335" type="Car" route="route_1" depart="552" />
<vehicle id="Auto_336" type="MotorCycle" route="route_2" depart="555" />
<vehicle id="Auto_337" type="Car" route="route_2" depart="555" />
<vehicle id="Car_338" type="MotorCycle" route="route_1" depart="569" />
<vehicle id="Bus_339" type="MotorCycle" route="route_5" depart="571" />
<vehicle id="Car_340" type="MotorCycle" route="route_2" depart="573" />
<vehicle id="MotorCycle_341" type="MotorCycle" route="route_4" depart="573" />
<vehicle id="MotorCycle_342" type="MotorCycle" route="route_1" depart="576" />
<vehicle id="Bus_343" type="MotorCycle" route="route_6" depart="576" />
<vehicle id="Auto_344" type="MotorCycle" route="route_1" depart="580" />
<vehicle id="Bus_345" type="MotorCycle" route="route_10" depart="582" />
<vehicle id="Bus_346" type="MotorCycle" route="route_4" depart="595" />
<vehicle id="Auto_347" type="MotorCycle" route="route_10" depart="595" />
<vehicle id="MotorCycle_348" type="Bus" route="route_9" depart="596" />
<vehicle id="MotorCycle_349" type="MotorCycle" route="route_9" depart="596" />
<vehicle id="Auto_350" type="MotorCycle" route="route_1" depart="602" />
<vehicle id="Bus_351" type="Car" route="route_2" depart="620" />
<vehicle id="Bus_352" type="MotorCycle" route="route_9" depart="622" />
<vehicle id="Bus_353" type="Car" route="route_9" depart="622" />
<vehicle id="Auto_354" type="MotorCycle" route="route_2" depart="628" />
<vehicle id="Car_355" type="Car" route="route_10" depart="636" />
<vehicle id="MotorCycle_356" type="MotorCycle" route="route_4" depart="637" />
<vehicle id="MotorCycle_357" type="MotorCycle" route="route_1" depart="640" />
<vehicle id="MotorCycle_358" type="MotorCycle" route="route_3" depart="643" />
<vehicle id="Auto_359" type="Auto" route="route_2" depart="644" />
<vehicle id="Auto_360" type="MotorCycle" route="route_2" depart="644" />
<vehicle id="Auto_361" type="MotorCycle" route="route_2" depart="650" />
<vehicle id="MotorCycle_362" type="Auto" route="route_1" depart="658" />
<vehicle id="MotorCycle_363" type="MotorCycle" route="route_1" depart="658" />
<vehicle id="Bus_364" type="MotorCycle" route="route_6" depart="659" />
<vehicle id="Car_365" type="MotorCycle" route="route_7" depart="661" />
<vehicle id="Car_366" type="MotorCycle" route="route_7" depart="663" />
<vehicle id="Bus_367" type="Car" route="route_10" depart="673" />
<vehicle id="Auto_368" type="Auto" route="route_1" depart="674" />
<vehicle id="Auto_369" type="MotorCycle" route="route_1" depart="674" />
<vehicle id="Bus_370" type="MotorCycle" route="route_8" depart="679" />
<vehicle id="Auto_371" type="MotorCycle" route="route_1" depart="685" />
<vehicle id="Auto_372" type="MotorCycle" route="route_6" depart="685" />
<vehicle id="Bus_373" type="MotorCycle" route="route_9" depart="688" />
<vehicle id="MotorCycle_374" type="MotorCycle" route="route_5" depart="695" />