<routes>
<vType id="Bus" accel="0.6" decel="3.5" sigma="0.5" length="10.1" minGap="1.0" maxSpeed="16.67" carFollowModel="Wiedemann" guiShape="bus" width="2.45" latAlignment="left" laneChangeModel="SL2015" lcStrategic="0.5" lcCooperative="0.0"/>
<vType id="Auto" accel="0.7" decel="4.5" sigma="0.5" length="2.6" minGap="0.3" maxSpeed="16" carFollowModel="Wiedemann" guiShape="passenger/sedan" width="1.25" latAlignment="left" laneChangeModel="SL2015" lcStrategic="0.5" lcCooperative="0.0" />
<vType id="MotorCycle" accel="0.9" decel="3.5" sigma="0.5" length="1.85" minGap="0.15"  carFollowModel="Wiedemann" maxSpeed="17" guiShape="motorcycle" width="0.7" latAlignment="left" laneChangeModel="SL2015" lcStrategic="0.5" lcCooperative="0.0"/>
<vType id="Car" accel="0.8" decel="4.5" sigma="0.5" length="3.6" minGap="0.5" maxSpeed="40" carFollowModel="Wiedemann" guiShape="passenger" width="1.5" latAlignment="left" laneChangeModel="SL2015" lcStrategic="0.5" lcCooperative="0.0"/>
<vType id="emergency" accel="2.8" decel="5.5" sigma="0.5" length="3.6" minGap="0.5" maxSpeed="120.6" carFollowModel="Wiedemann" guiShape="emergency" width="1.5" latAlignment="left" laneChangeModel="SL2015" lcStrategic="0.5" lcCooperative="0.0" vClass="emergency" speedFactor="1.9" jmDriveAfterRedTime="300" jmDriveAfterRedSpeed="5.56">
<param key="has.bluelight.device" value="true"/>
<param key="has.fcd.device" value="true"/> 
</vType>
	<route id="route_0" edges="78[0] 56a 56b 78[1][1]" />
	<route id="route_1" edges="78[0] 56a 56b 78[1][1] 189[0] 189[1][0]+20000 189[1][1] 188 87[0] 20001+87[1][0] 87[1][1] m90 89[0] 20002+89[1][0] 89[1][1] 91 186 109[0] 109[1][0]+20003 109[1][1] 116 46 134 134b -gneE0" />
        <route id="route_2" edges="gneE0 133 31 115 110 185 92 90 m91 88 187 190 77[0] 77[1][1] " />
        <route id="route_3" edges="78[0] 56a 56b 79 68 11 84" />
        <route id="route_4" edges="78[0] 56a 56b 21a 21b " /> 
        <route id="route_5" edges="75 77[0] 79 68 11 84 " />
        <route id="route_6" edges="75 77[0] 21a 21b" />
        <route id="route_7" edges="gneE0 133 31 201 201c 204a[0] " />
        <route id="route_8" edges="gneE0 133 31 113 209" />
        <route id="route_9" edges="119 116 46 113 209" />
        <route id="route_10" edges="119 116 46 201 201c 204a[0]" />
        <route id="route_11" edges="59" />
        <route id="route_12" edges="59" />
        <route id="route_13" edges="59" />
        <route id="route_14" edges="59" />
        <route id="route_15" edges="59" />
        <route id="route_16" edges="59" />
        <route id="route_17" edges="59" />
        <route id="route_18" edges="59" />
        <route id="route_19" edges="59" />
        <route id="route_20" edges="59" />
        <route id="route_21" edges="59" />
        <route id="route_22" edges="59" />
        <route id="route_23" edges="59" />

	<route id="route_24" edges="59"/>
<vehicle id="emergency_0" type="emergency" route="route_22" depart="0" />
<vehicle id="Bus_0" type="Bus" route="route_22" depart="0" />
<vehicle id="Car_0" type="Car" route="route_16" depart="0" />
<vehicle id="Bus_1" type="MotorCycle" route="route_5" depart="2" />
<vehicle id="Auto_2" type="MotorCycle" route="route_8" depart="2" />
<vehicle id="MotorCycle_3" type="MotorCycle" route="route_8" depart="3" />
<vehicle id="Bus_4" type="MotorCycle" route="route_10" depart="3" />
<vehicle id="Bus_5" type="MotorCycle" route="route_1" depart="5" />
<vehicle id="Bus_6" type="Car" route="route_1" depart="5" />
<vehicle id="Bus_7" type="Auto" route="route_1" depart="9" />
<vehicle id="Bus_8" type="MotorCycle" route="route_1" depart="9" />
<vehicle id="Car_9" type="Auto" route="route_2" depart="11" />
<vehicle id="Car_10" type="MotorCycle" route="route_2" depart="11" />
<vehicle id="Auto_11" type="MotorCycle" route="route_2" depart="12" />
<vehicle id="Auto_12" type="Car" route="route_2" depart="12" />
<vehicle id="Auto_13" type="MotorCycle" route="route_6" depart="17" />
<vehicle id="Bus_14" type="MotorCycle" route="route_1" depart="18" />
<vehicle id="Car_15" type="MotorCycle" route="route_2" depart="20" />
<vehicle id="Bus_16" type="MotorCycle" route="route_3" depart="20" />
<vehicle id="Bus_17" type="MotorCycle" route="route_5" depart="21" />
<vehicle id="Car_18" type="MotorCycle" route="route_1" depart="22" />
<vehicle id="Car_19" type="MotorCycle" route="route_1" depart="25" />
<vehicle id="Car_20" type="MotorCycle" route="route_1" depart="27" />
<vehicle id="Car_21" type="Car" route="route_1" depart="27" />
<vehicle id="Bus_22" type="MotorCycle" route="route_2" depart="27" />
<vehicle id="Bus_23" type="Car" route="route_2" depart="27" />
<vehicle id="Bus_24" type="MotorCycle" route="route_7" depart="27" />
<vehicle id="Car_25" type="MotorCycle" route="route_2" depart="29" />
<vehicle id="Car_26" type="Car" route="route_2" depart="29" />
<vehicle id="Bus_27" type="MotorCycle" route="route_2" depart="32" />
<vehicle id="Auto_28" type="MotorCycle" route="route_2" depart="36" />
<vehicle id="Bus_29" type="MotorCycle" route="route_1" depart="37" />
<vehicle id="Bus_30" type="Car" route="route_1" depart="37" />
<vehicle id="Auto_31" type="MotorCycle" route="route_8" depart="44" />
<vehicle id="MotorCycle_32" type="MotorCycle" route="route_9" depart="45" />
<vehicle id="Auto_33" type="MotorCycle" route="route_10" depart="46" />
<vehicle id="MotorCycle_34" type="MotorCycle" route="route_8" depart="49" />
<vehicle id="MotorCycle_35" type="MotorCycle" route="route_4" depart="52" />
<vehicle id="Bus_36" type="MotorCycle" route="route_1" depart="54" />
<vehicle id="Bus_37" type="Car" route="route_1" depart="54" />
<vehicle id="MotorCycle_38" type="MotorCycle" route="route_3" depart="55" />
<vehicle id="Bus_39" type="MotorCycle" route="route_11" depart="65" />
<vehicle id="Auto_40" type="MotorCycle" route="route_2" depart="71" />
<vehicle id="Auto_41" type="MotorCycle" route="route_2" depart="81" />
<vehicle id="Auto_42" type="Car" route="route_2" depart="81" />
<vehicle id="MotorCycle_43" type="MotorCycle" route="route_2" depart="85" />
<vehicle id="MotorCycle_44" type="Car" route="route_2" depart="85" />
<vehicle id="MotorCycle_45" type="MotorCycle" route="route_7" depart="85" />
<vehicle id="MotorCycle_46" type="Car" route="route_7" depart="85" />
<vehicle id="MotorCycle_47" type="MotorCycle" route="route_8" depart="86" />
<vehicle id="Bus_48" type="MotorCycle" route="route_1" depart="88" />
<vehicle id="Bus_49" type="Auto" route="route_6" depart="89" />
<vehicle id="Bus_50" type="MotorCycle" route="route_6" depart="89" />
<vehicle id="MotorCycle_51" type="MotorCycle" route="route_9" depart="92" />
<vehicle id="Auto_52" type="MotorCycle" route="route_2" depart="93" />
<vehicle id="Car_53" type="MotorCycle" route="route_7" depart="93" />
<vehicle id="Bus_54" type="MotorCycle" route="route_2" depart="95" />
<vehicle id="Bus_55" type="Car" route="route_2" depart="95" />
<vehicle id="Auto_56" type="MotorCycle" route="route_2" depart="96" />
<vehicle id="Auto_57" type="Car" route="route_2" depart="96" />
<vehicle id="Auto_58" type="MotorCycle" route="route_10" depart="98" />
<vehicle id="Auto_59" type="Car" route="route_10" depart="98" />
<vehicle id="Car_60" type="MotorCycle" route="route_8" depart="99" />
<vehicle id="Car_61" type="Car" route="route_8" depart="99" />
<vehicle id="Auto_62" type="MotorCycle" route="route_2" depart="102" />
<vehicle id="Car_63" type="Auto" route="route_1" depart="103" />
<vehicle id="Car_64" type="MotorCycle" route="route_1" depart="103" />
<vehicle id="Car_65" type="Car" route="route_1" depart="103" />
<vehicle id="Auto_66" type="MotorCycle" route="route_8" depart="107" />
<vehicle id="Car_67" type="MotorCycle" route="route_7" depart="113" />
<vehicle id="MotorCycle_68" type="MotorCycle" route="route_2" depart="126" />
<vehicle id="MotorCycle_69" type="Auto" route="route_3" depart="131" />
<vehicle id="MotorCycle_70" type="MotorCycle" route="route_3" depart="131" />
<vehicle id="MotorCycle_71" type="MotorCycle" route="route_9" depart="134" />
<vehicle id="Bus_72" type="MotorCycle" route="route_1" depart="137" />
<vehicle id="Bus_73" type="MotorCycle" route="route_5" depart="138" />
<vehicle id="Bus_74" type="MotorCycle" route="route_4" depart="140" />
<vehicle id="Auto_75" type="MotorCycle" route="route_1" depart="142" />
<vehicle id="Bus_76" type="MotorCycle" route="route_4" depart="143" />
<vehicle id="Bus_77" type="Car" route="route_4" depart="143" />
<vehicle id="Car_78" type="MotorCycle" route="route_1" depart="154" />
<vehicle id="Car_79" type="Car" route="route_1" depart="154" />
<vehicle id="Bus_80" type="Car" route="route_4" depart="158" />
<vehicle id="Bus_81" type="MotorCycle" route="route_9" depart="158" />
<vehicle id="MotorCycle_82" type="MotorCycle" route="route_2" depart="171" />
<vehicle id="Bus_83" type="MotorCycle" route="route_1" depart="172" />
<vehicle id="Bus_84" type="Car" route="route_1" depart="172" />
<vehicle id="Car_85" type="MotorCycle" route="route_10" depart="172" />
<vehicle id="Car_86" type="Car" route="route_10" depart="172" />
<vehicle id="MotorCycle_87" type="MotorCycle" route="route_1" depart="173" />
<vehicle id="MotorCycle_88" type="Car" route="route_1" depart="173" />
<vehicle id="MotorCycle_89" type="Auto" route="route_6" depart="180" />
<vehicle id="MotorCycle_90" type="MotorCycle" route="route_6" depart="180" />
<vehicle id="Car_91" type="Auto" route="route_3" depart="183" />
<vehicle id="Car_92" type="MotorCycle" route="route_3" depart="183" />
<vehicle id="Auto_93" type="MotorCycle" route="route_2" depart="184" />
<vehicle id="Auto_94" type="MotorCycle" route="route_4" depart="186" />
<vehicle id="Car_95" type="MotorCycle" route="route_1" depart="188" />
<vehicle id="Auto_96" type="MotorCycle" route="route_2" depart="190" />
<vehicle id="MotorCycle_97" type="Car" route="route_2" depart="199" />
<vehicle id="MotorCycle_98" type="MotorCycle" route="route_3" depart="199" />
<vehicle id="Bus_99" type="MotorCycle" route="route_8" depart="207" />
<vehicle id="Car_100" type="MotorCycle" route="route_4" depart="208" />
<vehicle id="Car_101" type="MotorCycle" route="route_8" depart="209" />
<vehicle id="Bus_102" type="MotorCycle" route="route_1" depart="212" />
<vehicle id="Car_103" type="MotorCycle" route="route_2" depart="216" />
<vehicle id="Car_104" type="MotorCycle" route="route_4" depart="219" />
<vehicle id="Bus_105" type="MotorCycle" route="route_6" depart="219" />
<vehicle id="MotorCycle_106" type="MotorCycle" route="route_1" depart="221" />
<vehicle id="Auto_107" type="MotorCycle" route="route_19" depart="223" />
<vehicle id="Auto_108" type="MotorCycle" route="route_1" depart="224" />
<vehicle id="Auto_109" type="Car" route="route_1" depart="224" />
<vehicle id="MotorCycle_110" type="MotorCycle" route="route_7" depart="224" />
<vehicle id="MotorCycle_111" type="MotorCycle" route="route_5" depart="229" />
<vehicle id="Bus_112" type="MotorCycle" route="route_3" depart="234" />
<vehicle id="Car_113" type="MotorCycle" route="route_9" depart="242" />
<vehicle id="Bus_114" type="MotorCycle" route="route_5" depart="243" />
<vehicle id="Car_115" type="MotorCycle" route="route_10" depart="245" />
<vehicle id="Auto_116" type="MotorCycle" route="route_2" depart="249" />
<vehicle id="Auto_117" type="MotorCycle" route="route_3" depart="251" />
<vehicle id="Car_118" type="MotorCycle" route="route_10" depart="253" />
<vehicle id="Car_119" type="Car" route="route_10" depart="253" />
<vehicle id="Bus_120" type="MotorCycle" route="route_9" depart="255" />
<vehicle id="MotorCycle_121" type="MotorCycle" route="route_3" depart="260" />
<vehicle id="Car_122" type="MotorCycle" route="route_22" depart="260" />
<vehicle id="Bus_123" type="MotorCycle" route="route_7" depart="264" />
<vehicle id="Bus_124" type="MotorCycle" route="route_5" depart="270" />
<vehicle id="Car_125" type="MotorCycle" route="route_2" depart="271" />
<vehicle id="Auto_126" type="Car" route="route_1" depart="276" />
<vehicle id="Bus_127" type="MotorCycle" route="route_8" depart="276" />
<vehicle id="Auto_128" type="MotorCycle" route="route_2" depart="277" />
<vehicle id="Bus_129" type="MotorCycle" route="route_5" depart="277" />
<vehicle id="Bus_130" type="Car" route="route_5" depart="277" />
<vehicle id="MotorCycle_131" type="MotorCycle" route="route_2" depart="279" />
<vehicle id="Bus_132" type="Bus" route="route_6" depart="280" />
<vehicle id="Bus_133" type="MotorCycle" route="route_6" depart="280" />
<vehicle id="Bus_134" type="Bus" route="route_2" depart="281" />
<vehicle id="Bus_135" type="MotorCycle" route="route_2" depart="281" />
<vehicle id="MotorCycle_136" type="MotorCycle" route="route_8" depart="286" />
<vehicle id="Bus_137" type="MotorCycle" route="route_9" depart="286" />
<vehicle id="Bus_138" type="MotorCycle" route="route_1" depart="292" />
<vehicle id="Bus_139" type="MotorCycle" route="route_8" depart="299" />
<vehicle id="Auto_140" type="MotorCycle" route="route_2" depart="301" />
<vehicle id="Car_141" type="Auto" route="route_5" depart="305" />
<vehicle id="Car_142" type="MotorCycle" route="route_5" depart="305" />
<vehicle id="Auto_143" type="MotorCycle" route="route_3" depart="307" />
<vehicle id="MotorCycle_144" type="MotorCycle" route="route_6" depart="308" />
<vehicle id="MotorCycle_145" type="MotorCycle" route="route_6" depart="309" />
<vehicle id="Bus_146" type="MotorCycle" route="route_9" depart="310" />
<vehicle id="Bus_147" type="Car" route="route_9" depart="310" />
<vehicle id="Bus_148" type="MotorCycle" route="route_6" depart="313" />
<vehicle id="Bus_149" type="MotorCycle" route="route_3" depart="316" />
<vehicle id="Auto_150" type="MotorCycle" route="route_2" depart="318" />
<vehicle id="Car_151" type="Auto" route="route_10" depart="324" />
<vehicle id="Car_152" type="MotorCycle" route="route_10" depart="324" />
<vehicle id="MotorCycle_153" type="MotorCycle" route="route_3" depart="326" />
<vehicle id="Auto_154" type="MotorCycle" route="route_10" depart="326" />
<vehicle id="Auto_155" type="MotorCycle" route="route_2" depart="329" />
<vehicle id="Auto_156" type="MotorCycle" route="route_7" depart="329" />
<vehicle id="MotorCycle_157" type="Bus" route="route_3" depart="330" />
<vehicle id="MotorCycle_158" type="MotorCycle" route="route_3" depart="330" />
<vehicle id="Auto_159" type="MotorCycle" route="route_1" depart="337" />
<vehicle id="Auto_160" type="MotorCycle" route="route_7" depart="338" />
<vehicle id="Auto_161" type="MotorCycle" route="route_1" depart="339" />
<vehicle id="Car_162" type="MotorCycle" route="route_8" depart="341" />
<vehicle id="MotorCycle_163" type="Auto" route="route_8" depart="342" />
<vehicle id="Auto_164" type="MotorCycle" route="route_2" depart="347" />
<vehicle id="MotorCycle_165" type="MotorCycle" route="route_3" depart="351" />
<vehicle id="MotorCycle_166" type="Car" route="route_3" depart="351" />
<vehicle id="Bus_167" type="MotorCycle" route="route_5" depart="354" />
<vehicle id="Bus_168" type="Car" route="route_5" depart="354" />
<vehicle id="Bus_169" type="Auto" route="route_7" depart="354" />
<vehicle id="Bus_170" type="MotorCycle" route="route_7" depart="354" />
<vehicle id="Car_171" type="MotorCycle" route="route_1" depart="355" />
<vehicle id="Auto_172" type="Car" route="route_3" depart="362" />
<vehicle id="Car_173" type="MotorCycle" route="route_9" depart="364" />
<vehicle id="MotorCycle_174" type="MotorCycle" route="route_1" depart="365" />
<vehicle id="MotorCycle_175" type="MotorCycle" route="route_1" depart="368" />
<vehicle id="MotorCycle_176" type="Car" route="route_8" depart="368" />
<vehicle id="Car_177" type="MotorCycle" route="route_1" depart="371" />
<vehicle id="Auto_178" type="MotorCycle" route="route_2" depart="375" />
<vehicle id="Bus_179" type="MotorCycle" route="route_8" depart="379" />
<vehicle id="Car_180" type="MotorCycle" route="route_7" depart="383" />
<vehicle id="Auto_181" type="MotorCycle" route="route_10" depart="388" />
<vehicle id="Auto_182" type="Car" route="route_10" depart="388" />
<vehicle id="Auto_183" type="Auto" route="route_2" depart="389" />
<vehicle id="Auto_184" type="MotorCycle" route="route_2" depart="389" />
<vehicle id="MotorCycle_185" type="MotorCycle" route="route_3" depart="389" />
<vehicle id="Bus_186" type="MotorCycle" route="route_4" depart="391" />
<vehicle id="Bus_187" type="MotorCycle" route="route_10" depart="393" />
<vehicle id="Bus_188" type="MotorCycle" route="route_7" depart="394" />
<vehicle id="Auto_189" type="MotorCycle" route="route_6" depart="397" />
<vehicle id="Auto_190" type="Car" route="route_6" depart="397" />
<vehicle id="MotorCycle_191" type="MotorCycle" route="route_8" depart="398" />
<vehicle id="MotorCycle_192" type="MotorCycle" route="route_5" depart="402" />
<vehicle id="Auto_193" type="Auto" route="route_2" depart="415" />
<vehicle id="Auto_194" type="MotorCycle" route="route_2" depart="415" />
<vehicle id="Car_195" type="MotorCycle" route="route_1" depart="421" />
<vehicle id="Bus_196" type="Car" route="route_2" depart="421" />
<vehicle id="Car_197" type="Car" route="route_2" depart="422" />
<vehicle id="Car_198" type="MotorCycle" route="route_5" depart="423" />
<vehicle id="Car_199" type="Car" route="route_5" depart="423" />
<vehicle id="Bus_200" type="Auto" route="route_3" depart="426" />
<vehicle id="Bus_201" type="MotorCycle" route="route_3" depart="426" />
<vehicle id="Car_202" type="MotorCycle" route="route_6" depart="428" />
<vehicle id="MotorCycle_203" type="MotorCycle" route="route_9" depart="430" />
<vehicle id="MotorCycle_204" type="Car" route="route_9" depart="430" />
<vehicle id="Car_205" type="MotorCycle" route="route_7" depart="438" />
<vehicle id="Car_206" type="Car" route="route_7" depart="438" />
<vehicle id="Bus_207" type="MotorCycle" route="route_7" depart="441" />
<vehicle id="Bus_208" type="Car" route="route_7" depart="441" />
<vehicle id="MotorCycle_209" type="MotorCycle" route="route_18" depart="441" />
<vehicle id="MotorCycle_210" type="Auto" route="route_7" depart="443" />
<vehicle id="MotorCycle_211" type="MotorCycle" route="route_7" depart="443" />
<vehicle id="MotorCycle_212" type="MotorCycle" route="route_3" depart="449" />
<vehicle id="Auto_213" type="MotorCycle" route="route_7" depart="449" />
<vehicle id="Auto_214" type="Car" route="route_7" depart="449" />
<vehicle id="MotorCycle_215" type="MotorCycle" route="route_1" depart="450" />
<vehicle id="Car_216" type="MotorCycle" route="route_2" depart="450" />
<vehicle id="MotorCycle_217" type="MotorCycle" route="route_4" depart="450" />
<vehicle id="MotorCycle_218" type="Auto" route="route_5" depart="450" />
<vehicle id="Auto_219" type="MotorCycle" route="route_1" depart="451" />
<vehicle id="Auto_220" type="Car" route="route_1" depart="451" />
<vehicle id="Car_221" type="Auto" route="route_2" depart="451" />
<vehicle id="Bus_222" type="MotorCycle" route="route_4" depart="451" />
<vehicle id="Bus_223" type="MotorCycle" route="route_9" depart="451" />
<vehicle id="Bus_224" type="MotorCycle" route="route_10" depart="451" />
<vehicle id="Auto_225" type="MotorCycle" route="route_1" depart="453" />
<vehicle id="Bus_226" type="MotorCycle" route="route_2" depart="453" />
<vehicle id="Bus_227" type="Bus" route="route_1" depart="454" />
<vehicle id="Bus_228" type="MotorCycle" route="route_1" depart="454" />
<vehicle id="MotorCycle_229" type="MotorCycle" route="route_2" depart="454" />
<vehicle id="Auto_230" type="MotorCycle" route="route_6" depart="454" />
<vehicle id="Car_231" type="MotorCycle" route="route_1" depart="455" />
<vehicle id="Auto_232" type="Car" route="route_8" depart="455" />
<vehicle id="MotorCycle_233" type="MotorCycle" route="route_1" depart="456" />
<vehicle id="MotorCycle_234" type="MotorCycle" route="route_2" depart="456" />
<vehicle id="MotorCycle_235" type="Car" route="route_2" depart="456" />
<vehicle id="Auto_236" type="MotorCycle" route="route_1" depart="457" />
<vehicle id="Car_237" type="MotorCycle" route="route_2" depart="457" />
<vehicle id="Car_238" type="Car" route="route_2" depart="457" />
<vehicle id="Car_239" type="Auto" route="route_3" depart="457" />
<vehicle id="Car_240" type="MotorCycle" route="route_3" depart="457" />
<vehicle id="Car_241" type="MotorCycle" route="route_8" depart="457" />
<vehicle id="Bus_242" type="MotorCycle" route="route_2" depart="458" />
<vehicle id="Car_243" type="MotorCycle" route="route_1" depart="459" />
<vehicle id="Auto_244" type="MotorCycle" route="route_2" depart="459" />
<vehicle id="Car_245" type="MotorCycle" route="route_4" depart="459" />
<vehicle id="Bus_246" type="MotorCycle" route="route_1" depart="460" />
<vehicle id="Car_247" type="Auto" route="route_2" depart="461" />
<vehicle id="Car_248" type="MotorCycle" route="route_2" depart="461" />
<vehicle id="Auto_249" type="Bus" route="route_1" depart="462" />
<vehicle id="Auto_250" type="MotorCycle" route="route_1" depart="462" />
<vehicle id="Auto_251" type="MotorCycle" route="route_2" depart="462" />
<vehicle id="MotorCycle_252" type="MotorCycle" route="route_1" depart="463" />
<vehicle id="Bus_253" type="Auto" route="route_2" depart="463" />
<vehicle id="Auto_254" type="MotorCycle" route="route_7" depart="463" />
<vehicle id="Auto_255" type="MotorCycle" route="route_8" depart="463" />
<vehicle id="Bus_256" type="MotorCycle" route="route_1" depart="464" />
<vehicle id="Auto_257" type="Car" route="route_2" depart="464" />
<vehicle id="MotorCycle_258" type="Car" route="route_10" depart="464" />
<vehicle id="MotorCycle_259" type="Car" route="route_2" depart="465" />
<vehicle id="Auto_260" type="MotorCycle" route="route_1" depart="466" />
<vehicle id="Car_261" type="MotorCycle" route="route_2" depart="466" />
<vehicle id="MotorCycle_262" type="MotorCycle" route="route_3" depart="466" />
<vehicle id="MotorCycle_263" type="Car" route="route_3" depart="466" />
<vehicle id="MotorCycle_264" type="MotorCycle" route="route_6" depart="466" />
<vehicle id="MotorCycle_265" type="Car" route="route_6" depart="466" />
<vehicle id="Car_266" type="MotorCycle" route="route_1" depart="467" />
<vehicle id="Bus_267" type="MotorCycle" route="route_2" depart="467" />
<vehicle id="Car_268" type="MotorCycle" route="route_5" depart="467" />
<vehicle id="Bus_269" type="Auto" route="route_8" depart="467" />
<vehicle id="Bus_270" type="MotorCycle" route="route_8" depart="467" />
<vehicle id="Auto_271" type="Auto" route="route_1" depart="468" />
<vehicle id="Auto_272" type="MotorCycle" route="route_1" depart="468" />
<vehicle id="Bus_273" type="MotorCycle" route="route_2" depart="468" />
<vehicle id="Car_274" type="MotorCycle" route="route_3" depart="468" />
<vehicle id="Car_275" type="Car" route="route_3" depart="468" />
<vehicle id="Bus_276" type="MotorCycle" route="route_1" depart="469" />
<vehicle id="MotorCycle_277" type="MotorCycle" route="route_1" depart="470" />
<vehicle id="MotorCycle_278" type="MotorCycle" route="route_9" depart="470" />
<vehicle id="Auto_279" type="MotorCycle" route="route_1" depart="471" />
<vehicle id="Car_280" type="MotorCycle" route="route_2" depart="471" />
<vehicle id="Car_281" type="Auto" route="route_3" depart="471" />
<vehicle id="Car_282" type="MotorCycle" route="route_3" depart="471" />
<vehicle id="MotorCycle_283" type="MotorCycle" route="route_1" depart="472" />
<vehicle id="Car_284" type="MotorCycle" route="route_2" depart="472" />
<vehicle id="Bus_285" type="MotorCycle" route="route_1" depart="473" />
<vehicle id="Bus_286" type="Car" route="route_1" depart="473" />
<vehicle id="Bus_287" type="MotorCycle" route="route_1" depart="474" />
<vehicle id="Bus_288" type="Car" route="route_1" depart="474" />
<vehicle id="MotorCycle_289" type="MotorCycle" route="route_10" depart="474" />
<vehicle id="Bus_290" type="MotorCycle" route="route_1" depart="475" />
<vehicle id="Bus_291" type="Car" route="route_1" depart="475" />
<vehicle id="Car_292" type="MotorCycle" route="route_2" depart="475" />
<vehicle id="Car_293" type="Auto" route="route_1" depart="476" />
<vehicle id="Car_294" type="MotorCycle" route="route_1" depart="476" />
<vehicle id="MotorCycle_295" type="MotorCycle" route="route_2" depart="476" />
<vehicle id="Auto_296" type="MotorCycle" route="route_1" depart="477" />
<vehicle id="Auto_297" type="MotorCycle" route="route_9" depart="477" />
<vehicle id="Auto_298" type="Car" route="route_9" depart="477" />
<vehicle id="MotorCycle_299" type="MotorCycle" route="route_1" depart="478" />
<vehicle id="MotorCycle_300" type="Car" route="route_1" depart="478" />
<vehicle id="Car_301" type="Auto" route="route_5" depart="478" />
<vehicle id="Car_302" type="MotorCycle" route="route_5" depart="478" />
<vehicle id="Car_303" type="Car" route="route_6" depart="479" />
<vehicle id="Auto_304" type="Bus" route="route_1" depart="480" />
<vehicle id="Auto_305" type="MotorCycle" route="route_1" depart="480" />
<vehicle id="Bus_306" type="MotorCycle" route="route_2" depart="480" />
<vehicle id="Auto_307" type="MotorCycle" route="route_8" depart="480" />
<vehicle id="Auto_308" type="Car" route="route_8" depart="480" />
<vehicle id="Bus_309" type="MotorCycle" route="route_10" depart="480" />
<vehicle id="Bus_310" type="Car" route="route_10" depart="480" />
<vehicle id="MotorCycle_311" type="MotorCycle" route="route_1" depart="481" />
<vehicle id="MotorCycle_312" type="MotorCycle" route="route_2" depart="481" />
<vehicle id="Car_313" type="Car" route="route_1" depart="482" />
<vehicle id="Bus_314" type="MotorCycle" route="route_3" depart="482" />
<vehicle id="Car_315" type="Car" route="route_4" depart="482" />
<vehicle id="Car_316" type="MotorCycle" route="route_9" depart="482" />
<vehicle id="MotorCycle_317" type="MotorCycle" route="route_1" depart="483" />
<vehicle id="Bus_318" type="MotorCycle" route="route_2" depart="483" />
<vehicle id="Bus_319" type="MotorCycle" route="route_7" depart="483" />
<vehicle id="Auto_320" type="MotorCycle" route="route_8" depart="483" />
<vehicle id="Bus_321" type="MotorCycle" route="route_1" depart="484" />
<vehicle id="Car_322" type="MotorCycle" route="route_1" depart="485" />
<vehicle id="Bus_323" type="MotorCycle" route="route_1" depart="486" />
<vehicle id="Car_324" type="MotorCycle" route="route_2" depart="486" />
<vehicle id="Auto_325" type="MotorCycle" route="route_9" depart="486" />
<vehicle id="Car_326" type="MotorCycle" route="route_1" depart="487" />
<vehicle id="Bus_327" type="MotorCycle" route="route_10" depart="487" />
<vehicle id="Bus_328" type="Car" route="route_10" depart="487" />
<vehicle id="Bus_329" type="MotorCycle" route="route_1" depart="488" />
<vehicle id="Bus_330" type="MotorCycle" route="route_2" depart="488" />
<vehicle id="Car_331" type="MotorCycle" route="route_1" depart="489" />
<vehicle id="Bus_332" type="MotorCycle" route="route_2" depart="489" />
<vehicle id="Bus_333" type="Car" route="route_2" depart="489" />
<vehicle id="Bus_334" type="MotorCycle" route="route_1" depart="490" />
<vehicle id="Car_335" type="MotorCycle" route="route_2" depart="490" />
<vehicle id="Auto_336" type="Auto" route="route_1" depart="491" />
<vehicle id="Auto_337" type="MotorCycle" route="route_1" depart="491" />
<vehicle id="Auto_338" type="Bus" route="route_2" depart="491" />
<vehicle id="Auto_339" type="MotorCycle" route="route_2" depart="491" />
<vehicle id="Car_340" type="MotorCycle" route="route_8" depart="491" />
<vehicle id="Auto_341" type="MotorCycle" route="route_1" depart="492" />
<vehicle id="Car_342" type="MotorCycle" route="route_2" depart="492" />
<vehicle id="Auto_343" type="MotorCycle" route="route_5" depart="492" />
<vehicle id="Bus_344" type="MotorCycle" route="route_8" depart="492" />
<vehicle id="Auto_345" type="MotorCycle" route="route_2" depart="493" />
<vehicle id="Bus_346" type="MotorCycle" route="route_8" depart="493" />
<vehicle id="Bus_347" type="Car" route="route_8" depart="493" />
<vehicle id="Auto_348" type="MotorCycle" route="route_10" depart="493" />
<vehicle id="Bus_349" type="Auto" route="route_1" depart="494" />
<vehicle id="Bus_350" type="MotorCycle" route="route_1" depart="494" />
<vehicle id="Bus_351" type="Auto" route="route_2" depart="494" />
<vehicle id="Bus_352" type="MotorCycle" route="route_2" depart="494" />
<vehicle id="Auto_353" type="MotorCycle" route="route_2" depart="496" />
<vehicle id="MotorCycle_354" type="MotorCycle" route="route_7" depart="496" />
<vehicle id="Car_355" type="MotorCycle" route="route_1" depart="497" />
<vehicle id="Car_356" type="MotorCycle" route="route_2" depart="497" />
<vehicle id="MotorCycle_357" type="Car" route="route_4" depart="497" />
<vehicle id="MotorCycle_358" type="MotorCycle" route="route_5" depart="497" />
<vehicle id="Car_359" type="MotorCycle" route="route_1" depart="498" />
<vehicle id="Bus_360" type="Auto" route="route_2" depart="498" />
<vehicle id="Bus_361" type="MotorCycle" route="route_2" depart="498" />
<vehicle id="Car_362" type="MotorCycle" route="route_8" depart="498" />
<vehicle id="Bus_363" type="Auto" route="route_10" depart="498" />
<vehicle id="Auto_364" type="Auto" route="route_1" depart="499" />
<vehicle id="Auto_365" type="MotorCycle" route="route_1" depart="499" />
<vehicle id="Bus_366" type="MotorCycle" route="route_2" depart="499" />
<vehicle id="Auto_367" type="MotorCycle" route="route_9" depart="501" />
<vehicle id="Auto_368" type="Car" route="route_9" depart="501" />
<vehicle id="Bus_369" type="MotorCycle" route="route_3" depart="502" />
<vehicle id="Auto_370" type="MotorCycle" route="route_2" depart="504" />
<vehicle id="MotorCycle_371" type="MotorCycle" route="route_6" depart="507" />
<vehicle id="Car_372" type="MotorCycle" route="route_8" depart="507" />
<vehicle id="Bus_373" type="MotorCycle" route="route_1" depart="512" />
<vehicle id="Bus_374" type="MotorCycle" route="route_1" depart="516" />
<vehicle id="Auto_375" type="MotorCycle" route="route_3" depart="517" />
<vehicle id="Auto_376" type="MotorCycle" route="route_2" depart="526" />