<routes>
<vType id="Bus" accel="0.6" decel="3.5" sigma="0.5" length="10.1" minGap="1.0" maxSpeed="16.67" carFollowModel="Wiedemann" guiShape="bus" width="2.45" latAlignment="left" laneChangeModel="SL2015" lcStrategic="0.5" lcCooperative="0.0"/>
<vType id="Auto" accel="0.7" decel="4.5" sigma="0.5" length="2.6" minGap="0.3" maxSpeed="16" carFollowModel="Wiedemann" guiShape="passenger/sedan" width="1.25" latAlignment="left" laneChangeModel="SL2015" lcStrategic="0.5" lcCooperative="0.0" />
<vType id="MotorCycle" accel="0.9" decel="3.5" sigma="0.5" length="1.85" minGap="0.15"  carFollowModel="Wiedemann" maxSpeed="17" guiShape="motorcycle" width="0.7" latAlignment="left" laneChangeModel="SL2015" lcStrategic="0.5" lcCooperative="0.0"/>
<vType id="Car" accel="0.8" decel="4.5" sigma="0.5" length="3.6" minGap="0.5" maxSpeed="40" carFollowModel="Wiedemann" guiShape="passenger" width="1.5" latAlignment="left" laneChangeModel="SL2015" lcStrategic="0.5" lcCooperative="0.0"/>
<vType id="emergency" accel="2.8" decel="5.5" sigma="0.5" length="3.6" minGap="0.5" maxSpeed="120.6" carFollowModel="Wiedemann" guiShape="emergency" width="1.5" latAlignment="left" laneChangeModel="SL2015" lcStrategic="0.5" lcCooperative="0.0" vClass="emergency" speedFactor="1.9" jmDriveAfterRedTime="300" jmDriveAfterRedSpeed="5.56">
<param key="has.bluelight.device" value="true"/>
<param key="has.fcd.device" value="true"/> 
</vType>
	<route id="route_0" edges="78[0] 56a 56b 78[1][1]" />
	<route id="route_1" edges="78[0] 56a 56b 78[1][1] 189[0] 189[1][0]+20000 189[1][1] 188 87[0] 20001+87[1][0] 87[1][1] m90 89[0] 20002+89[1][0] 89[1][1] 91 186 109[0] 109[1][0]+20003 109[1][1] 116 46 134 134b -gneE0" />
        <route id="route_2" edges="gneE0 133 31 115 110 185 92 90 m91 88 187 190 77[0] 77[1][1] " />
        <route id="route_3" edges="78[0] 56a 56b 79 68 11 84" />
        <route id="route_4" edges="78[0] 56a 56b 21a 21b " /> 
        <route id="route_5" edges="75 77[0] 79 68 11 84 " />
        <route id="route_6" edges="75 77[0] 21a 21b" />
        <route id="route_7" edges="gneE0 133 31 201 201c 204a[0] " />
        <route id="route_8" edges="gneE0 133 31 113 209" />
        <route id="route_9" edges="119 116 46 113 209" />
        <route id="route_10" edges="119 116 46 201 201c 204a[0]" />
        <route id="route_11" edges="59" />
        <route id="route_12" edges="59" />
        <route id="route_13" edges="59" />
        <route id="route_14" edges="59" />
        <route id="route_15" edges="59" />
        <route id="route_16" edges="59" />
        <route id="route_17" edges="59" />
        <route id="route_18" edges="59" />
        <route id="route_19" edges="59" />
        <route id="route_20" edges="59" />
        <route id="route_21" edges="59" />
        <route id="route_22" edges="59" />
        <route id="route_23" edges="59" />

	<route id="route_24" edges="59"/>
<vehicle id="emergency_0" type="emergency" route="route_11" depart="0" />
<vehicle id="Bus_0" type="Bus" route="route_11" depart="0" />
<vehicle id="Car_0" type="Car" route="route_12" depart="0" />
<vehicle id="Auto_1" type="MotorCycle" route="route_1" depart="1" />
<vehicle id="MotorCycle_2" type="MotorCycle" route="route_2" depart="3" />
<vehicle id="MotorCycle_3" type="MotorCycle" route="route_1" depart="4" />
<vehicle id="Auto_4" type="MotorCycle" route="route_2" depart="4" />
<vehicle id="Auto_5" type="Car" route="route_5" depart="8" />
<vehicle id="Bus_6" type="MotorCycle" route="route_2" depart="12" />
<vehicle id="MotorCycle_7" type="MotorCycle" route="route_5" depart="12" />
<vehicle id="MotorCycle_8" type="Car" route="route_5" depart="12" />
<vehicle id="Bus_9" type="MotorCycle" route="route_2" depart="13" />
<vehicle id="Auto_10" type="MotorCycle" route="route_1" depart="15" />
<vehicle id="Bus_11" type="MotorCycle" route="route_2" depart="16" />
<vehicle id="Bus_12" type="Auto" route="route_4" depart="16" />
<vehicle id="Bus_13" type="MotorCycle" route="route_4" depart="16" />
<vehicle id="Bus_14" type="MotorCycle" route="route_5" depart="16" />
<vehicle id="MotorCycle_15" type="MotorCycle" route="route_1" depart="20" />
<vehicle id="MotorCycle_16" type="Car" route="route_1" depart="20" />
<vehicle id="Bus_17" type="MotorCycle" route="route_1" depart="23" />
<vehicle id="Auto_18" type="MotorCycle" route="route_2" depart="25" />
<vehicle id="Auto_19" type="Car" route="route_2" depart="25" />
<vehicle id="Bus_20" type="MotorCycle" route="route_6" depart="26" />
<vehicle id="Bus_21" type="MotorCycle" route="route_2" depart="27" />
<vehicle id="Bus_22" type="Bus" route="route_3" depart="27" />
<vehicle id="Bus_23" type="MotorCycle" route="route_3" depart="27" />
<vehicle id="MotorCycle_24" type="Car" route="route_2" depart="28" />
<vehicle id="Bus_25" type="MotorCycle" route="route_1" depart="36" />
<vehicle id="Auto_26" type="MotorCycle" route="route_10" depart="36" />
<vehicle id="Car_27" type="MotorCycle" route="route_1" depart="37" />
<vehicle id="Auto_28" type="MotorCycle" route="route_2" depart="37" />
<vehicle id="Bus_29" type="MotorCycle" route="route_9" depart="38" />
<vehicle id="Car_30" type="MotorCycle" route="route_1" depart="40" />
<vehicle id="Car_31" type="MotorCycle" route="route_2" depart="44" />
<vehicle id="MotorCycle_32" type="MotorCycle" route="route_3" depart="44" />
<vehicle id="Bus_33" type="MotorCycle" route="route_1" depart="45" />
<vehicle id="Bus_34" type="MotorCycle" route="route_6" depart="45" />
<vehicle id="Car_35" type="MotorCycle" route="route_1" depart="46" />
<vehicle id="Bus_36" type="MotorCycle" route="route_5" depart="46" />
<vehicle id="Car_37" type="MotorCycle" route="route_8" depart="46" />
<vehicle id="Bus_38" type="MotorCycle" route="route_2" depart="48" />
<vehicle id="Bus_39" type="MotorCycle" route="route_6" depart="55" />
<vehicle id="MotorCycle_40" type="MotorCycle" route="route_2" depart="57" />
<vehicle id="MotorCycle_41" type="Car" route="route_2" depart="57" />
<vehicle id="Bus_42" type="MotorCycle" route="route_5" depart="63" />
<vehicle id="Car_43" type="MotorCycle" route="route_10" depart="65" />
<vehicle id="Auto_44" type="MotorCycle" route="route_8" depart="71" />
<vehicle id="Bus_45" type="MotorCycle" route="route_2" depart="74" />
<vehicle id="Bus_46" type="MotorCycle" route="route_2" depart="76" />
<vehicle id="MotorCycle_47" type="MotorCycle" route="route_10" depart="86" />
<vehicle id="Car_48" type="MotorCycle" route="route_8" depart="90" />
<vehicle id="MotorCycle_49" type="Car" route="route_1" depart="101" />
<vehicle id="Car_50" type="MotorCycle" route="route_1" depart="109" />
<vehicle id="Auto_51" type="MotorCycle" route="route_2" depart="111" />
<vehicle id="MotorCycle_52" type="Auto" route="route_2" depart="131" />
<vehicle id="MotorCycle_53" type="Car" route="route_2" depart="131" />
<vehicle id="MotorCycle_54" type="MotorCycle" route="route_5" depart="132" />
<vehicle id="Car_55" type="Auto" route="route_4" depart="134" />
<vehicle id="Car_56" type="MotorCycle" route="route_4" depart="134" />
<vehicle id="MotorCycle_57" type="MotorCycle" route="route_10" depart="134" />
<vehicle id="MotorCycle_58" type="Car" route="route_10" depart="134" />
<vehicle id="Auto_59" type="MotorCycle" route="route_1" depart="147" />
<vehicle id="MotorCycle_60" type="MotorCycle" route="route_3" depart="152" />
<vehicle id="MotorCycle_61" type="MotorCycle" route="route_5" depart="158" />
<vehicle id="Auto_62" type="MotorCycle" route="route_10" depart="158" />
<vehicle id="Bus_63" type="MotorCycle" route="route_2" depart="169" />
<vehicle id="Car_64" type="MotorCycle" route="route_3" depart="170" />
<vehicle id="Car_65" type="Car" route="route_3" depart="170" />
<vehicle id="Car_66" type="MotorCycle" route="route_2" depart="172" />
<vehicle id="Car_67" type="MotorCycle" route="route_4" depart="176" />
<vehicle id="MotorCycle_68" type="MotorCycle" route="route_10" depart="179" />
<vehicle id="Auto_69" type="MotorCycle" route="route_1" depart="199" />
<vehicle id="Auto_70" type="MotorCycle" route="route_9" depart="202" />
<vehicle id="Car_71" type="MotorCycle" route="route_1" depart="203" />
<vehicle id="MotorCycle_72" type="Auto" route="route_3" depart="205" />
<vehicle id="Auto_73" type="MotorCycle" route="route_4" depart="211" />
<vehicle id="Car_74" type="MotorCycle" route="route_9" depart="211" />
<vehicle id="Auto_75" type="MotorCycle" route="route_2" depart="219" />
<vehicle id="Bus_76" type="MotorCycle" route="route_3" depart="229" />
<vehicle id="MotorCycle_77" type="MotorCycle" route="route_1" depart="234" />
<vehicle id="MotorCycle_78" type="Car" route="route_1" depart="234" />
<vehicle id="MotorCycle_79" type="Car" route="route_5" depart="239" />
<vehicle id="MotorCycle_80" type="Auto" route="route_7" depart="240" />
<vehicle id="MotorCycle_81" type="MotorCycle" route="route_7" depart="240" />
<vehicle id="Bus_82" type="MotorCycle" route="route_9" depart="242" />
<vehicle id="Bus_83" type="MotorCycle" route="route_1" depart="243" />
<vehicle id="Auto_84" type="Auto" route="route_6" depart="243" />
<vehicle id="Auto_85" type="MotorCycle" route="route_6" depart="243" />
<vehicle id="Auto_86" type="MotorCycle" route="route_1" depart="246" />
<vehicle id="Bus_87" type="MotorCycle" route="route_7" depart="249" />
<vehicle id="Bus_88" type="Car" route="route_7" depart="249" />
<vehicle id="Auto_89" type="MotorCycle" route="route_6" depart="250" />
<vehicle id="MotorCycle_90" type="MotorCycle" route="route_5" depart="254" />
<vehicle id="Bus_91" type="Car" route="route_10" depart="254" />
<vehicle id="Car_92" type="MotorCycle" route="route_4" depart="256" />
<vehicle id="Car_93" type="Car" route="route_4" depart="256" />
<vehicle id="MotorCycle_94" type="MotorCycle" route="route_3" depart="259" />
<vehicle id="MotorCycle_95" type="MotorCycle" route="route_3" depart="264" />
<vehicle id="Car_96" type="Auto" route="route_2" depart="267" />
<vehicle id="Car_97" type="MotorCycle" route="route_2" depart="267" />
<vehicle id="Bus_98" type="MotorCycle" route="route_1" depart="270" />
<vehicle id="Car_99" type="Auto" route="route_3" depart="280" />
<vehicle id="Car_100" type="MotorCycle" route="route_3" depart="280" />
<vehicle id="MotorCycle_101" type="MotorCycle" route="route_4" depart="280" />
<vehicle id="Car_102" type="MotorCycle" route="route_6" depart="283" />
<vehicle id="Car_103" type="MotorCycle" route="route_10" depart="285" />
<vehicle id="Car_104" type="Car" route="route_10" depart="285" />
<vehicle id="Car_105" type="MotorCycle" route="route_2" depart="291" />
<vehicle id="Car_106" type="MotorCycle" route="route_7" depart="295" />
<vehicle id="Bus_107" type="MotorCycle" route="route_6" depart="297" />
<vehicle id="MotorCycle_108" type="MotorCycle" route="route_10" depart="304" />
<vehicle id="Auto_109" type="MotorCycle" route="route_3" depart="308" />
<vehicle id="Car_110" type="MotorCycle" route="route_4" depart="314" />
<vehicle id="Bus_111" type="MotorCycle" route="route_8" depart="315" />
<vehicle id="Auto_112" type="Car" route="route_2" depart="316" />
<vehicle id="Auto_113" type="MotorCycle" route="route_3" depart="320" />
<vehicle id="Bus_114" type="MotorCycle" route="route_1" depart="324" />
<vehicle id="Auto_115" type="MotorCycle" route="route_5" depart="327" />
<vehicle id="Car_116" type="Car" route="route_4" depart="332" />
<vehicle id="Bus_117" type="Car" route="route_10" depart="339" />
<vehicle id="MotorCycle_118" type="MotorCycle" route="route_2" depart="344" />
<vehicle id="Bus_119" type="MotorCycle" route="route_2" depart="347" />
<vehicle id="Bus_120" type="Car" route="route_7" depart="348" />
<vehicle id="MotorCycle_121" type="Auto" route="route_7" depart="353" />
<vehicle id="MotorCycle_122" type="MotorCycle" route="route_7" depart="353" />
<vehicle id="Auto_123" type="MotorCycle" route="route_10" depart="354" />
<vehicle id="Car_124" type="MotorCycle" route="route_1" depart="358" />
<vehicle id="Auto_125" type="MotorCycle" route="route_6" depart="361" />
<vehicle id="Car_126" type="MotorCycle" route="route_6" depart="363" />
<vehicle id="Bus_127" type="Car" route="route_1" depart="365" />
<vehicle id="Auto_128" type="MotorCycle" route="route_1" depart="369" />
<vehicle id="Car_129" type="MotorCycle" route="route_1" depart="370" />
<vehicle id="Car_130" type="MotorCycle" route="route_8" depart="373" />
<vehicle id="Bus_131" type="MotorCycle" route="route_7" depart="378" />
<vehicle id="Bus_132" type="Car" route="route_7" depart="378" />
<vehicle id="Auto_133" type="MotorCycle" route="route_1" depart="381" />
<vehicle id="Auto_134" type="Car" route="route_1" depart="381" />
<vehicle id="MotorCycle_135" type="MotorCycle" route="route_3" depart="381" />
<vehicle id="MotorCycle_136" type="MotorCycle" route="route_7" depart="381" />
<vehicle id="MotorCycle_137" type="Car" route="route_7" depart="381" />
<vehicle id="Auto_138" type="Auto" route="route_1" depart="393" />
<vehicle id="Auto_139" type="MotorCycle" route="route_1" depart="393" />
<vehicle id="Auto_140" type="MotorCycle" route="route_3" depart="394" />
<vehicle id="Auto_141" type="Car" route="route_3" depart="394" />
<vehicle id="Auto_142" type="MotorCycle" route="route_4" depart="396" />
<vehicle id="Auto_143" type="MotorCycle" route="route_8" depart="396" />
<vehicle id="Auto_144" type="Car" route="route_8" depart="396" />
<vehicle id="MotorCycle_145" type="MotorCycle" route="route_1" depart="411" />
<vehicle id="Bus_146" type="Bus" route="route_9" depart="411" />
<vehicle id="Bus_147" type="MotorCycle" route="route_9" depart="411" />
<vehicle id="Car_148" type="MotorCycle" route="route_8" depart="412" />
<vehicle id="MotorCycle_149" type="MotorCycle" route="route_7" depart="416" />
<vehicle id="Car_150" type="MotorCycle" route="route_6" depart="418" />
<vehicle id="Car_151" type="Car" route="route_6" depart="418" />
<vehicle id="MotorCycle_152" type="MotorCycle" route="route_1" depart="431" />
<vehicle id="Auto_153" type="MotorCycle" route="route_5" depart="433" />
<vehicle id="Auto_154" type="MotorCycle" route="route_2" depart="442" />
<vehicle id="Auto_155" type="MotorCycle" route="route_10" depart="445" />
<vehicle id="Auto_156" type="MotorCycle" route="route_4" depart="448" />
<vehicle id="Auto_157" type="Car" route="route_4" depart="448" />
<vehicle id="Car_158" type="MotorCycle" route="route_1" depart="450" />
<vehicle id="Car_159" type="MotorCycle" route="route_9" depart="450" />
<vehicle id="MotorCycle_160" type="MotorCycle" route="route_1" depart="451" />
<vehicle id="Auto_161" type="Bus" route="route_10" depart="451" />
<vehicle id="Auto_162" type="MotorCycle" route="route_10" depart="451" />
<vehicle id="Car_163" type="MotorCycle" route="route_1" depart="452" />
<vehicle id="MotorCycle_164" type="MotorCycle" route="route_8" depart="452" />
<vehicle id="Auto_165" type="MotorCycle" route="route_1" depart="453" />
<vehicle id="Car_166" type="Auto" route="route_2" depart="453" />
<vehicle id="Car_167" type="MotorCycle" route="route_2" depart="453" />
<vehicle id="Auto_168" type="MotorCycle" route="route_1" depart="454" />
<vehicle id="Car_169" type="Car" route="route_2" depart="454" />
<vehicle id="MotorCycle_170" type="MotorCycle" route="route_8" depart="454" />
<vehicle id="MotorCycle_171" type="MotorCycle" route="route_1" depart="455" />
<vehicle id="Auto_172" type="MotorCycle" route="route_9" depart="455" />
<vehicle id="Car_173" type="Car" route="route_2" depart="456" />
<vehicle id="Bus_174" type="Bus" route="route_1" depart="457" />
<vehicle id="Car_175" type="MotorCycle" route="route_9" depart="457" />
<vehicle id="Bus_176" type="MotorCycle" route="route_1" depart="458" />
<vehicle id="MotorCycle_177" type="MotorCycle" route="route_2" depart="458" />
<vehicle id="Bus_178" type="MotorCycle" route="route_1" depart="459" />
<vehicle id="Car_179" type="MotorCycle" route="route_2" depart="459" />
<vehicle id="Car_180" type="Car" route="route_1" depart="460" />
<vehicle id="MotorCycle_181" type="MotorCycle" route="route_2" depart="460" />
<vehicle id="Bus_182" type="MotorCycle" route="route_6" depart="460" />
<vehicle id="Car_183" type="MotorCycle" route="route_2" depart="461" />
<vehicle id="Car_184" type="Auto" route="route_5" depart="461" />
<vehicle id="MotorCycle_185" type="MotorCycle" route="route_1" depart="462" />
<vehicle id="Car_186" type="MotorCycle" route="route_3" depart="462" />
<vehicle id="Bus_187" type="MotorCycle" route="route_5" depart="462" />
<vehicle id="Auto_188" type="MotorCycle" route="route_10" depart="462" />
<vehicle id="MotorCycle_189" type="MotorCycle" route="route_2" depart="463" />
<vehicle id="Bus_190" type="Auto" route="route_6" depart="463" />
<vehicle id="Bus_191" type="MotorCycle" route="route_6" depart="463" />
<vehicle id="MotorCycle_192" type="Auto" route="route_1" depart="464" />
<vehicle id="MotorCycle_193" type="MotorCycle" route="route_1" depart="464" />
<vehicle id="Auto_194" type="MotorCycle" route="route_2" depart="464" />
<vehicle id="MotorCycle_195" type="MotorCycle" route="route_6" depart="464" />
<vehicle id="Auto_196" type="MotorCycle" route="route_1" depart="465" />
<vehicle id="Bus_197" type="MotorCycle" route="route_5" depart="465" />
<vehicle id="Bus_198" type="Car" route="route_5" depart="465" />
<vehicle id="Auto_199" type="MotorCycle" route="route_1" depart="467" />
<vehicle id="Auto_200" type="Car" route="route_1" depart="467" />
<vehicle id="Auto_201" type="MotorCycle" route="route_2" depart="467" />
<vehicle id="Car_202" type="MotorCycle" route="route_10" depart="467" />
<vehicle id="Car_203" type="Car" route="route_10" depart="467" />
<vehicle id="Auto_204" type="MotorCycle" route="route_1" depart="468" />
<vehicle id="MotorCycle_205" type="MotorCycle" route="route_2" depart="468" />
<vehicle id="MotorCycle_206" type="Car" route="route_2" depart="468" />
<vehicle id="Bus_207" type="MotorCycle" route="route_8" depart="469" />
<vehicle id="Bus_208" type="MotorCycle" route="route_2" depart="470" />
<vehicle id="Car_209" type="MotorCycle" route="route_7" depart="470" />
<vehicle id="MotorCycle_210" type="MotorCycle" route="route_1" depart="471" />
<vehicle id="MotorCycle_211" type="Car" route="route_1" depart="471" />
<vehicle id="Bus_212" type="MotorCycle" route="route_2" depart="472" />
<vehicle id="MotorCycle_213" type="MotorCycle" route="route_1" depart="474" />
<vehicle id="Auto_214" type="MotorCycle" route="route_7" depart="474" />
<vehicle id="Auto_215" type="Car" route="route_7" depart="474" />
<vehicle id="Car_216" type="Auto" route="route_1" depart="475" />
<vehicle id="Car_217" type="MotorCycle" route="route_1" depart="475" />
<vehicle id="Car_218" type="Car" route="route_1" depart="475" />
<vehicle id="Car_219" type="MotorCycle" route="route_2" depart="475" />
<vehicle id="Bus_220" type="MotorCycle" route="route_8" depart="475" />
<vehicle id="Auto_221" type="MotorCycle" route="route_2" depart="476" />
<vehicle id="Bus_222" type="MotorCycle" route="route_4" depart="476" />
<vehicle id="Bus_223" type="MotorCycle" route="route_7" depart="476" />
<vehicle id="Auto_224" type="MotorCycle" route="route_8" depart="476" />
<vehicle id="Auto_225" type="MotorCycle" route="route_2" depart="477" />
<vehicle id="Auto_226" type="MotorCycle" route="route_1" depart="478" />
<vehicle id="Car_227" type="MotorCycle" route="route_2" depart="478" />
<vehicle id="MotorCycle_228" type="MotorCycle" route="route_1" depart="479" />
<vehicle id="MotorCycle_229" type="MotorCycle" route="route_2" depart="479" />
<vehicle id="Bus_230" type="MotorCycle" route="route_7" depart="479" />
<vehicle id="MotorCycle_231" type="MotorCycle" route="route_2" depart="480" />
<vehicle id="Auto_232" type="MotorCycle" route="route_9" depart="480" />
<vehicle id="Bus_233" type="MotorCycle" route="route_1" depart="481" />
<vehicle id="Bus_234" type="Car" route="route_1" depart="481" />
<vehicle id="Auto_235" type="MotorCycle" route="route_2" depart="481" />
<vehicle id="Auto_236" type="MotorCycle" route="route_5" depart="481" />
<vehicle id="MotorCycle_237" type="MotorCycle" route="route_6" depart="481" />
<vehicle id="Bus_238" type="Auto" route="route_8" depart="481" />
<vehicle id="Bus_239" type="MotorCycle" route="route_8" depart="481" />
<vehicle id="MotorCycle_240" type="MotorCycle" route="route_1" depart="482" />
<vehicle id="MotorCycle_241" type="Car" route="route_1" depart="482" />
<vehicle id="Bus_242" type="MotorCycle" route="route_1" depart="483" />
<vehicle id="Auto_243" type="MotorCycle" route="route_2" depart="483" />
<vehicle id="Car_244" type="MotorCycle" route="route_7" depart="483" />
<vehicle id="Bus_245" type="MotorCycle" route="route_8" depart="483" />
<vehicle id="Car_246" type="MotorCycle" route="route_2" depart="484" />
<vehicle id="Car_247" type="Car" route="route_2" depart="484" />
<vehicle id="MotorCycle_248" type="MotorCycle" route="route_10" depart="484" />
<vehicle id="Auto_249" type="MotorCycle" route="route_1" depart="485" />
<vehicle id="Bus_250" type="MotorCycle" route="route_2" depart="485" />
<vehicle id="Bus_251" type="MotorCycle" route="route_1" depart="486" />
<vehicle id="MotorCycle_252" type="MotorCycle" route="route_2" depart="486" />
<vehicle id="Bus_253" type="MotorCycle" route="route_4" depart="486" />
<vehicle id="Car_254" type="MotorCycle" route="route_10" depart="486" />
<vehicle id="Car_255" type="MotorCycle" route="route_1" depart="487" />
<vehicle id="Car_256" type="MotorCycle" route="route_2" depart="487" />
<vehicle id="Bus_257" type="MotorCycle" route="route_10" depart="487" />
<vehicle id="MotorCycle_258" type="MotorCycle" route="route_2" depart="488" />
<vehicle id="MotorCycle_259" type="Car" route="route_2" depart="488" />
<vehicle id="MotorCycle_260" type="MotorCycle" route="route_5" depart="488" />
<vehicle id="Bus_261" type="MotorCycle" route="route_7" depart="488" />
<vehicle id="Car_262" type="MotorCycle" route="route_9" depart="488" />
<vehicle id="Bus_263" type="MotorCycle" route="route_2" depart="489" />
<vehicle id="Auto_264" type="Auto" route="route_9" depart="489" />
<vehicle id="Bus_265" type="MotorCycle" route="route_2" depart="490" />
<vehicle id="Bus_266" type="Car" route="route_2" depart="490" />
<vehicle id="Auto_267" type="MotorCycle" route="route_3" depart="491" />
<vehicle id="Bus_268" type="MotorCycle" route="route_4" depart="491" />
<vehicle id="Bus_269" type="MotorCycle" route="route_5" depart="491" />
<vehicle id="Car_270" type="MotorCycle" route="route_8" depart="491" />
<vehicle id="MotorCycle_271" type="MotorCycle" route="route_1" depart="492" />
<vehicle id="Car_272" type="MotorCycle" route="route_3" depart="492" />
<vehicle id="Auto_273" type="MotorCycle" route="route_1" depart="493" />
<vehicle id="Car_274" type="MotorCycle" route="route_2" depart="493" />
<vehicle id="Car_275" type="Car" route="route_2" depart="493" />
<vehicle id="Auto_276" type="MotorCycle" route="route_1" depart="494" />
<vehicle id="MotorCycle_277" type="MotorCycle" route="route_8" depart="494" />
<vehicle id="Bus_278" type="Auto" route="route_1" depart="495" />
<vehicle id="Car_279" type="MotorCycle" route="route_1" depart="496" />
<vehicle id="Car_280" type="Car" route="route_1" depart="496" />
<vehicle id="MotorCycle_281" type="MotorCycle" route="route_2" depart="496" />
<vehicle id="MotorCycle_282" type="MotorCycle" route="route_4" depart="496" />
<vehicle id="Bus_283" type="MotorCycle" route="route_1" depart="497" />
<vehicle id="Bus_284" type="MotorCycle" route="route_1" depart="498" />
<vehicle id="Bus_285" type="Auto" route="route_2" depart="498" />
<vehicle id="Bus_286" type="MotorCycle" route="route_2" depart="498" />
<vehicle id="Car_287" type="MotorCycle" route="route_7" depart="498" />
<vehicle id="MotorCycle_288" type="MotorCycle" route="route_8" depart="498" />
<vehicle id="MotorCycle_289" type="Car" route="route_8" depart="498" />
<vehicle id="Auto_290" type="Auto" route="route_10" depart="498" />
<vehicle id="Auto_291" type="MotorCycle" route="route_10" depart="498" />
<vehicle id="MotorCycle_292" type="MotorCycle" route="route_1" depart="499" />
<vehicle id="Auto_293" type="MotorCycle" route="route_3" depart="499" />
<vehicle id="MotorCycle_294" type="Auto" route="route_4" depart="505" />
<vehicle id="MotorCycle_295" type="MotorCycle" route="route_4" depart="505" />
<vehicle id="Car_296" type="MotorCycle" route="route_1" depart="512" />
<vehicle id="Auto_297" type="MotorCycle" route="route_10" depart="514" />
<vehicle id="Car_298" type="MotorCycle" route="route_1" depart="522" />
<vehicle id="Car_299" type="Bus" route="route_1" depart="525" />
<vehicle id="Car_300" type="MotorCycle" route="route_1" depart="525" />
<vehicle id="Car_301" type="Car" route="route_1" depart="525" />
<vehicle id="Bus_302" type="MotorCycle" route="route_1" depart="526" />
<vehicle id="Bus_303" type="Car" route="route_1" depart="526" />
<vehicle id="Car_304" type="MotorCycle" route="route_1" depart="532" />
<vehicle id="Auto_305" type="MotorCycle" route="route_6" depart="533" />
<vehicle id="Auto_306" type="MotorCycle" route="route_1" depart="534" />
<vehicle id="Car_307" type="MotorCycle" route="route_9" depart="540" />
<vehicle id="MotorCycle_308" type="MotorCycle" route="route_11" depart="542" />
<vehicle id="Auto_309" type="MotorCycle" route="route_3" depart="545" />
<vehicle id="Auto_310" type="Car" route="route_3" depart="545" />
<vehicle id="MotorCycle_311" type="MotorCycle" route="route_1" depart="548" />
<vehicle id="Car_312" type="MotorCycle" route="route_7" depart="553" />
<vehicle id="Auto_313" type="MotorCycle" route="route_2" depart="554" />
<vehicle id="MotorCycle_314" type="MotorCycle" route="route_10" depart="554" />
<vehicle id="Auto_315" type="MotorCycle" route="route_2" depart="563" />
<vehicle id="Car_316" type="MotorCycle" route="route_2" depart="564" />
<vehicle id="Car_317" type="MotorCycle" route="route_1" depart="574" />
<vehicle id="Bus_318" type="MotorCycle" route="route_7" depart="577" />
<vehicle id="Car_319" type="Car" route="route_3" depart="579" />
<vehicle id="MotorCycle_320" type="MotorCycle" route="route_1" depart="580" />
<vehicle id="Auto_321" type="MotorCycle" route="route_10" depart="582" />
<vehicle id="Bus_322" type="Auto" route="route_4" depart="590" />
<vehicle id="Bus_323" type="MotorCycle" route="route_4" depart="590" />
<vehicle id="Bus_324" type="Car" route="route_4" depart="590" />
<vehicle id="Auto_325" type="Auto" route="route_8" depart="597" />
<vehicle id="Auto_326" type="MotorCycle" route="route_8" depart="597" />
<vehicle id="Car_327" type="MotorCycle" route="route_2" depart="599" />
<vehicle id="Bus_328" type="MotorCycle" route="route_6" depart="601" />
<vehicle id="Auto_329" type="Car" route="route_2" depart="605" />
<vehicle id="Car_330" type="MotorCycle" route="route_6" depart="605" />
<vehicle id="MotorCycle_331" type="MotorCycle" route="route_7" depart="609" />
<vehicle id="Auto_332" type="MotorCycle" route="route_2" depart="615" />
<vehicle id="MotorCycle_333" type="MotorCycle" route="route_7" depart="617" />
<vehicle id="MotorCycle_334" type="Car" route="route_7" depart="617" />
<vehicle id="Bus_335" type="MotorCycle" route="route_1" depart="618" />
<vehicle id="Car_336" type="MotorCycle" route="route_10" depart="622" />
<vehicle id="Auto_337" type="MotorCycle" route="route_7" depart="625" />
<vehicle id="Auto_338" type="Car" route="route_7" depart="625" />
<vehicle id="MotorCycle_339" type="MotorCycle" route="route_8" depart="625" />
<vehicle id="Auto_340" type="MotorCycle" route="route_9" depart="639" />
<vehicle id="Bus_341" type="MotorCycle" route="route_9" depart="643" />
<vehicle id="MotorCycle_342" type="MotorCycle" route="route_1" depart="644" />
<vehicle id="MotorCycle_343" type="MotorCycle" route="route_2" depart="646" />
<vehicle id="Bus_344" type="MotorCycle" route="route_2" depart="648" />
<vehicle id="Bus_345" type="Car" route="route_2" depart="648" />
<vehicle id="Car_346" type="MotorCycle" route="route_3" depart="648" />
<vehicle id="Auto_347" type="MotorCycle" route="route_6" depart="650" />
<vehicle id="Auto_348" type="Car" route="route_6" depart="650" />
<vehicle id="MotorCycle_349" type="Bus" route="route_9" depart="668" />
<vehicle id="MotorCycle_350" type="MotorCycle" route="route_9" depart="668" />
<vehicle id="MotorCycle_351" type="MotorCycle" route="route_9" depart="670" />
<vehicle id="MotorCycle_352" type="Car" route="route_9" depart="670" />
<vehicle id="Bus_353" type="MotorCycle" route="route_2" depart="672" />
<vehicle id="Bus_354" type="Car" route="route_2" depart="672" />
<vehicle id="Car_355" type="MotorCycle" route="route_10" depart="672" />
<vehicle id="Car_356" type="Car" route="route_10" depart="672" />
<vehicle id="MotorCycle_357" type="MotorCycle" route="route_8" depart="675" />
<vehicle id="Car_358" type="MotorCycle" route="route_5" depart="682" />
<vehicle id="Bus_359" type="Auto" route="route_1" depart="684" />
<vehicle id="Bus_360" type="MotorCycle" route="route_1" depart="684" />
<vehicle id="Car_361" type="MotorCycle" route="route_2" depart="684" />
<vehicle id="Car_362" type="MotorCycle" route="route_5" depart="684" />
<vehicle id="Car_363" type="MotorCycle" route="route_5" depart="687" />
<vehicle id="MotorCycle_364" type="MotorCycle" route="route_9" depart="687" />
<vehicle id="Car_365" type="MotorCycle" route="route_3" depart="688" />
<vehicle id="Auto_366" type="MotorCycle" route="route_7" depart="689" />
<vehicle id="MotorCycle_367" type="MotorCycle" route="route_4" depart="690" />
<vehicle id="Car_368" type="MotorCycle" route="route_9" depart="692" />
<vehicle id="Car_369" type="MotorCycle" route="route_3" depart="696" />
<vehicle id="MotorCycle_370" type="MotorCycle" route="route_1" depart="699" />
<vehicle id="Car_371" type="MotorCycle" route="route_4" depart="700" />
<vehicle id="MotorCycle_372" type="MotorCycle" route="route_8" depart="701" />
<vehicle id="Auto_373" type="MotorCycle" route="route_1" depart="703" />