<routes>
<vType id="Bus" accel="0.6" decel="3.5" sigma="0.5" length="10.1" minGap="1.0" maxSpeed="16.67" carFollowModel="Wiedemann" guiShape="bus" width="2.45" latAlignment="left" laneChangeModel="SL2015" lcStrategic="0.5" lcCooperative="0.0"/>
<vType id="Auto" accel="0.7" decel="4.5" sigma="0.5" length="2.6" minGap="0.3" maxSpeed="16" carFollowModel="Wiedemann" guiShape="passenger/sedan" width="1.25" latAlignment="left" laneChangeModel="SL2015" lcStrategic="0.5" lcCooperative="0.0" />
<vType id="MotorCycle" accel="0.9" decel="3.5" sigma="0.5" length="1.85" minGap="0.15"  carFollowModel="Wiedemann" maxSpeed="17" guiShape="motorcycle" width="0.7" latAlignment="left" laneChangeModel="SL2015" lcStrategic="0.5" lcCooperative="0.0"/>
<vType id="Car" accel="0.8" decel="4.5" sigma="0.5" length="3.6" minGap="0.5" maxSpeed="40" carFollowModel="Wiedemann" guiShape="passenger" width="1.5" latAlignment="left" laneChangeModel="SL2015" lcStrategic="0.5" lcCooperative="0.0"/>
<vType id="emergency" accel="2.8" decel="5.5" sigma="0.5" length="3.6" minGap="0.5" maxSpeed="120.6" carFollowModel="Wiedemann" guiShape="emergency" width="1.5" latAlignment="left" laneChangeModel="SL2015" lcStrategic="0.5" lcCooperative="0.0" vClass="emergency" speedFactor="1.9" jmDriveAfterRedTime="300" jmDriveAfterRedSpeed="5.56">
<param key="has.bluelight.device" value="true"/>
<param key="has.fcd.device" value="true"/> 
</vType>
	<route id="route_0" edges="78[0] 56a 56b 78[1][1]" />
	<route id="route_1" edges="78[0] 56a 56b 78[1][1] 189[0] 189[1][0]+20000 189[1][1] 188 87[0] 20001+87[1][0] 87[1][1] m90 89[0] 20002+89[1][0] 89[1][1] 91 186 109[0] 109[1][0]+20003 109[1][1] 116 46 134 134b -gneE0" />
        <route id="route_2" edges="gneE0 133 31 115 110 185 92 90 m91 88 187 190 77[0] 77[1][1] " />
        <route id="route_3" edges="78[0] 56a 56b 79 68 11 84" />
        <route id="route_4" edges="78[0] 56a 56b 21a 21b " /> 
        <route id="route_5" edges="75 77[0] 79 68 11 84 " />
        <route id="route_6" edges="75 77[0] 21a 21b" />
        <route id="route_7" edges="gneE0 133 31 201 201c 204a[0] " />
        <route id="route_8" edges="gneE0 133 31 113 209" />
        <route id="route_9" edges="119 116 46 113 209" />
        <route id="route_10" edges="119 116 46 201 201c 204a[0]" />
        <route id="route_11" edges="59" />
        <route id="route_12" edges="59" />
        <route id="route_13" edges="59" />
        <route id="route_14" edges="59" />
        <route id="route_15" edges="59" />
        <route id="route_16" edges="59" />
        <route id="route_17" edges="59" />
        <route id="route_18" edges="59" />
        <route id="route_19" edges="59" />
        <route id="route_20" edges="59" />
        <route id="route_21" edges="59" />
        <route id="route_22" edges="59" />
        <route id="route_23" edges="59" />

	<route id="route_24" edges="59"/>
<vehicle id="emergency_0" type="emergency" route="route_7" depart="0" />
<vehicle id="Bus_0" type="Bus" route="route_7" depart="0" />
<vehicle id="Car_0" type="Car" route="route_17" depart="0" />
<vehicle id="Bus_1" type="MotorCycle" route="route_10" depart="1" />
<vehicle id="Auto_2" type="MotorCycle" route="route_1" depart="4" />
<vehicle id="MotorCycle_3" type="MotorCycle" route="route_1" depart="5" />
<vehicle id="Car_4" type="MotorCycle" route="route_2" depart="6" />
<vehicle id="Car_5" type="MotorCycle" route="route_1" depart="7" />
<vehicle id="Car_6" type="MotorCycle" route="route_2" depart="7" />
<vehicle id="Bus_7" type="MotorCycle" route="route_10" depart="7" />
<vehicle id="MotorCycle_8" type="MotorCycle" route="route_8" depart="8" />
<vehicle id="MotorCycle_9" type="MotorCycle" route="route_9" depart="9" />
<vehicle id="Car_10" type="MotorCycle" route="route_1" depart="10" />
<vehicle id="Auto_11" type="MotorCycle" route="route_2" depart="10" />
<vehicle id="MotorCycle_12" type="MotorCycle" route="route_2" depart="11" />
<vehicle id="Bus_13" type="MotorCycle" route="route_1" depart="12" />
<vehicle id="Auto_14" type="MotorCycle" route="route_1" depart="14" />
<vehicle id="Car_15" type="MotorCycle" route="route_5" depart="14" />
<vehicle id="MotorCycle_16" type="MotorCycle" route="route_2" depart="15" />
<vehicle id="Bus_17" type="Auto" route="route_3" depart="15" />
<vehicle id="Car_18" type="MotorCycle" route="route_4" depart="16" />
<vehicle id="Car_19" type="Car" route="route_4" depart="16" />
<vehicle id="Bus_20" type="MotorCycle" route="route_1" depart="20" />
<vehicle id="MotorCycle_21" type="Auto" route="route_4" depart="22" />
<vehicle id="Car_22" type="MotorCycle" route="route_1" depart="23" />
<vehicle id="MotorCycle_23" type="MotorCycle" route="route_7" depart="24" />
<vehicle id="Car_24" type="MotorCycle" route="route_2" depart="25" />
<vehicle id="Bus_25" type="MotorCycle" route="route_2" depart="26" />
<vehicle id="MotorCycle_26" type="MotorCycle" route="route_8" depart="28" />
<vehicle id="MotorCycle_27" type="MotorCycle" route="route_9" depart="31" />
<vehicle id="Bus_28" type="MotorCycle" route="route_1" depart="34" />
<vehicle id="Car_29" type="MotorCycle" route="route_2" depart="34" />
<vehicle id="Car_30" type="Car" route="route_2" depart="34" />
<vehicle id="Auto_31" type="MotorCycle" route="route_6" depart="34" />
<vehicle id="Bus_32" type="MotorCycle" route="route_1" depart="35" />
<vehicle id="Bus_33" type="Car" route="route_1" depart="35" />
<vehicle id="Auto_34" type="MotorCycle" route="route_1" depart="36" />
<vehicle id="Car_35" type="Car" route="route_2" depart="37" />
<vehicle id="Auto_36" type="MotorCycle" route="route_2" depart="39" />
<vehicle id="MotorCycle_37" type="MotorCycle" route="route_6" depart="40" />
<vehicle id="Bus_38" type="MotorCycle" route="route_2" depart="44" />
<vehicle id="MotorCycle_39" type="MotorCycle" route="route_1" depart="45" />
<vehicle id="MotorCycle_40" type="Car" route="route_1" depart="45" />
<vehicle id="Auto_41" type="MotorCycle" route="route_4" depart="45" />
<vehicle id="Car_42" type="MotorCycle" route="route_10" depart="49" />
<vehicle id="Bus_43" type="MotorCycle" route="route_1" depart="59" />
<vehicle id="MotorCycle_44" type="Auto" route="route_3" depart="61" />
<vehicle id="MotorCycle_45" type="MotorCycle" route="route_2" depart="63" />
<vehicle id="MotorCycle_46" type="MotorCycle" route="route_6" depart="66" />
<vehicle id="MotorCycle_47" type="MotorCycle" route="route_1" depart="69" />
<vehicle id="Bus_48" type="MotorCycle" route="route_1" depart="74" />
<vehicle id="Car_49" type="MotorCycle" route="route_10" depart="79" />
<vehicle id="Bus_50" type="MotorCycle" route="route_4" depart="84" />
<vehicle id="Bus_51" type="MotorCycle" route="route_6" depart="88" />
<vehicle id="Auto_52" type="MotorCycle" route="route_7" depart="95" />
<vehicle id="Auto_53" type="Car" route="route_7" depart="95" />
<vehicle id="Car_54" type="MotorCycle" route="route_10" depart="96" />
<vehicle id="Auto_55" type="MotorCycle" route="route_10" depart="99" />
<vehicle id="Auto_56" type="MotorCycle" route="route_6" depart="104" />
<vehicle id="MotorCycle_57" type="MotorCycle" route="route_2" depart="106" />
<vehicle id="MotorCycle_58" type="Car" route="route_2" depart="106" />
<vehicle id="MotorCycle_59" type="MotorCycle" route="route_1" depart="112" />
<vehicle id="MotorCycle_60" type="MotorCycle" route="route_8" depart="115" />
<vehicle id="Car_61" type="Bus" route="route_10" depart="117" />
<vehicle id="Car_62" type="MotorCycle" route="route_10" depart="117" />
<vehicle id="MotorCycle_63" type="MotorCycle" route="route_6" depart="118" />
<vehicle id="Bus_64" type="MotorCycle" route="route_2" depart="126" />
<vehicle id="MotorCycle_65" type="MotorCycle" route="route_3" depart="136" />
<vehicle id="Bus_66" type="MotorCycle" route="route_10" depart="137" />
<vehicle id="Auto_67" type="MotorCycle" route="route_8" depart="139" />
<vehicle id="Auto_68" type="MotorCycle" route="route_9" depart="146" />
<vehicle id="Bus_69" type="MotorCycle" route="route_6" depart="155" />
<vehicle id="MotorCycle_70" type="MotorCycle" route="route_2" depart="159" />
<vehicle id="Auto_71" type="MotorCycle" route="route_1" depart="162" />
<vehicle id="Auto_72" type="MotorCycle" route="route_9" depart="162" />
<vehicle id="Car_73" type="MotorCycle" route="route_7" depart="163" />
<vehicle id="Bus_74" type="MotorCycle" route="route_8" depart="172" />
<vehicle id="MotorCycle_75" type="MotorCycle" route="route_8" depart="173" />
<vehicle id="Car_76" type="MotorCycle" route="route_1" depart="176" />
<vehicle id="Bus_77" type="Auto" route="route_2" depart="176" />
<vehicle id="Bus_78" type="MotorCycle" route="route_2" depart="176" />
<vehicle id="Car_79" type="MotorCycle" route="route_1" depart="183" />
<vehicle id="Bus_80" type="MotorCycle" route="route_3" depart="183" />
<vehicle id="MotorCycle_81" type="MotorCycle" route="route_1" depart="184" />
<vehicle id="MotorCycle_82" type="Auto" route="route_2" depart="187" />
<vehicle id="MotorCycle_83" type="Auto" route="route_3" depart="192" />
<vehicle id="Car_84" type="MotorCycle" route="route_2" depart="198" />
<vehicle id="Car_85" type="MotorCycle" route="route_3" depart="200" />
<vehicle id="Car_86" type="MotorCycle" route="route_5" depart="208" />
<vehicle id="Car_87" type="Auto" route="route_4" depart="211" />
<vehicle id="Car_88" type="MotorCycle" route="route_4" depart="211" />
<vehicle id="Car_89" type="MotorCycle" route="route_6" depart="217" />
<vehicle id="Bus_90" type="MotorCycle" route="route_5" depart="223" />
<vehicle id="Auto_91" type="MotorCycle" route="route_2" depart="224" />
<vehicle id="Auto_92" type="Car" route="route_2" depart="224" />
<vehicle id="Bus_93" type="MotorCycle" route="route_1" depart="225" />
<vehicle id="Car_94" type="MotorCycle" route="route_9" depart="228" />
<vehicle id="Car_95" type="Car" route="route_9" depart="228" />
<vehicle id="Auto_96" type="MotorCycle" route="route_4" depart="233" />
<vehicle id="MotorCycle_97" type="MotorCycle" route="route_8" depart="235" />
<vehicle id="Auto_98" type="MotorCycle" route="route_8" depart="236" />
<vehicle id="Bus_99" type="MotorCycle" route="route_1" depart="239" />
<vehicle id="Bus_100" type="MotorCycle" route="route_2" depart="239" />
<vehicle id="Bus_101" type="Car" route="route_2" depart="239" />
<vehicle id="Auto_102" type="MotorCycle" route="route_8" depart="239" />
<vehicle id="Auto_103" type="Car" route="route_8" depart="239" />
<vehicle id="MotorCycle_104" type="MotorCycle" route="route_2" depart="254" />
<vehicle id="MotorCycle_105" type="Car" route="route_2" depart="254" />
<vehicle id="Auto_106" type="MotorCycle" route="route_6" depart="258" />
<vehicle id="Auto_107" type="MotorCycle" route="route_7" depart="258" />
<vehicle id="Car_108" type="MotorCycle" route="route_10" depart="270" />
<vehicle id="Auto_109" type="MotorCycle" route="route_1" depart="273" />
<vehicle id="MotorCycle_110" type="MotorCycle" route="route_8" depart="273" />
<vehicle id="Auto_111" type="MotorCycle" route="route_5" depart="276" />
<vehicle id="Auto_112" type="MotorCycle" route="route_2" depart="290" />
<vehicle id="MotorCycle_113" type="MotorCycle" route="route_9" depart="296" />
<vehicle id="Bus_114" type="MotorCycle" route="route_4" depart="308" />
<vehicle id="Bus_115" type="MotorCycle" route="route_8" depart="309" />
<vehicle id="Bus_116" type="Car" route="route_8" depart="309" />
<vehicle id="MotorCycle_117" type="MotorCycle" route="route_2" depart="314" />
<vehicle id="MotorCycle_118" type="MotorCycle" route="route_2" depart="319" />
<vehicle id="MotorCycle_119" type="Car" route="route_2" depart="319" />
<vehicle id="Car_120" type="MotorCycle" route="route_4" depart="326" />
<vehicle id="Car_121" type="MotorCycle" route="route_7" depart="328" />
<vehicle id="Auto_122" type="MotorCycle" route="route_1" depart="332" />
<vehicle id="MotorCycle_123" type="MotorCycle" route="route_5" depart="333" />
<vehicle id="MotorCycle_124" type="MotorCycle" route="route_3" depart="334" />
<vehicle id="Auto_125" type="MotorCycle" route="route_6" depart="348" />
<vehicle id="MotorCycle_126" type="MotorCycle" route="route_1" depart="352" />
<vehicle id="MotorCycle_127" type="Car" route="route_1" depart="352" />
<vehicle id="Auto_128" type="MotorCycle" route="route_8" depart="352" />
<vehicle id="Car_129" type="MotorCycle" route="route_8" depart="362" />
<vehicle id="Bus_130" type="MotorCycle" route="route_4" depart="366" />
<vehicle id="Bus_131" type="Car" route="route_4" depart="366" />
<vehicle id="MotorCycle_132" type="MotorCycle" route="route_1" depart="367" />
<vehicle id="Car_133" type="MotorCycle" route="route_6" depart="367" />
<vehicle id="Car_134" type="MotorCycle" route="route_2" depart="374" />
<vehicle id="Car_135" type="Car" route="route_2" depart="374" />
<vehicle id="Bus_136" type="MotorCycle" route="route_7" depart="374" />
<vehicle id="Bus_137" type="Car" route="route_7" depart="374" />
<vehicle id="MotorCycle_138" type="MotorCycle" route="route_3" depart="375" />
<vehicle id="Auto_139" type="MotorCycle" route="route_4" depart="375" />
<vehicle id="Auto_140" type="MotorCycle" route="route_2" depart="376" />
<vehicle id="Auto_141" type="Car" route="route_2" depart="376" />
<vehicle id="Car_142" type="MotorCycle" route="route_8" depart="394" />
<vehicle id="Bus_143" type="MotorCycle" route="route_1" depart="395" />
<vehicle id="Bus_144" type="MotorCycle" route="route_5" depart="417" />
<vehicle id="Bus_145" type="Auto" route="route_6" depart="420" />
<vehicle id="Car_146" type="MotorCycle" route="route_1" depart="424" />
<vehicle id="MotorCycle_147" type="MotorCycle" route="route_5" depart="426" />
<vehicle id="Auto_148" type="MotorCycle" route="route_2" depart="428" />
<vehicle id="Car_149" type="MotorCycle" route="route_6" depart="432" />
<vehicle id="Car_150" type="MotorCycle" route="route_6" depart="437" />
<vehicle id="Auto_151" type="MotorCycle" route="route_9" depart="445" />
<vehicle id="Bus_152" type="MotorCycle" route="route_8" depart="448" />
<vehicle id="MotorCycle_153" type="MotorCycle" route="route_2" depart="449" />
<vehicle id="Bus_154" type="MotorCycle" route="route_2" depart="450" />
<vehicle id="Car_155" type="MotorCycle" route="route_9" depart="450" />
<vehicle id="Car_156" type="Car" route="route_9" depart="450" />
<vehicle id="Car_157" type="MotorCycle" route="route_1" depart="451" />
<vehicle id="Auto_158" type="Auto" route="route_2" depart="451" />
<vehicle id="Car_159" type="MotorCycle" route="route_8" depart="451" />
<vehicle id="Auto_160" type="MotorCycle" route="route_1" depart="452" />
<vehicle id="Auto_161" type="Car" route="route_1" depart="452" />
<vehicle id="Bus_162" type="MotorCycle" route="route_4" depart="452" />
<vehicle id="Bus_163" type="Car" route="route_4" depart="452" />
<vehicle id="MotorCycle_164" type="MotorCycle" route="route_5" depart="452" />
<vehicle id="Car_165" type="MotorCycle" route="route_2" depart="453" />
<vehicle id="MotorCycle_166" type="MotorCycle" route="route_3" depart="453" />
<vehicle id="MotorCycle_167" type="MotorCycle" route="route_5" depart="453" />
<vehicle id="Bus_168" type="MotorCycle" route="route_9" depart="453" />
<vehicle id="Car_169" type="MotorCycle" route="route_1" depart="454" />
<vehicle id="MotorCycle_170" type="Auto" route="route_1" depart="455" />
<vehicle id="MotorCycle_171" type="Auto" route="route_3" depart="455" />
<vehicle id="MotorCycle_172" type="MotorCycle" route="route_3" depart="455" />
<vehicle id="MotorCycle_173" type="Car" route="route_3" depart="455" />
<vehicle id="Auto_174" type="MotorCycle" route="route_1" depart="456" />
<vehicle id="Bus_175" type="MotorCycle" route="route_7" depart="456" />
<vehicle id="Bus_176" type="MotorCycle" route="route_9" depart="456" />
<vehicle id="Auto_177" type="MotorCycle" route="route_1" depart="457" />
<vehicle id="Bus_178" type="MotorCycle" route="route_4" depart="457" />
<vehicle id="Bus_179" type="MotorCycle" route="route_2" depart="458" />
<vehicle id="Bus_180" type="MotorCycle" route="route_1" depart="459" />
<vehicle id="Bus_181" type="MotorCycle" route="route_2" depart="459" />
<vehicle id="Car_182" type="MotorCycle" route="route_1" depart="460" />
<vehicle id="Car_183" type="MotorCycle" route="route_2" depart="460" />
<vehicle id="Auto_184" type="MotorCycle" route="route_9" depart="460" />
<vehicle id="MotorCycle_185" type="MotorCycle" route="route_2" depart="461" />
<vehicle id="Auto_186" type="MotorCycle" route="route_1" depart="462" />
<vehicle id="MotorCycle_187" type="MotorCycle" route="route_2" depart="462" />
<vehicle id="Auto_188" type="MotorCycle" route="route_9" depart="462" />
<vehicle id="Auto_189" type="MotorCycle" route="route_1" depart="464" />
<vehicle id="Auto_190" type="MotorCycle" route="route_2" depart="464" />
<vehicle id="Auto_191" type="MotorCycle" route="route_9" depart="464" />
<vehicle id="MotorCycle_192" type="MotorCycle" route="route_2" depart="465" />
<vehicle id="MotorCycle_193" type="Car" route="route_1" depart="467" />
<vehicle id="MotorCycle_194" type="MotorCycle" route="route_2" depart="467" />
<vehicle id="Auto_195" type="MotorCycle" route="route_1" depart="468" />
<vehicle id="Bus_196" type="Car" route="route_1" depart="469" />
<vehicle id="Bus_197" type="MotorCycle" route="route_2" depart="469" />
<vehicle id="MotorCycle_198" type="MotorCycle" route="route_1" depart="470" />
<vehicle id="MotorCycle_199" type="MotorCycle" route="route_1" depart="471" />
<vehicle id="Auto_200" type="MotorCycle" route="route_2" depart="471" />
<vehicle id="Bus_201" type="MotorCycle" route="route_2" depart="472" />
<vehicle id="MotorCycle_202" type="MotorCycle" route="route_4" depart="472" />
<vehicle id="Car_203" type="MotorCycle" route="route_1" depart="473" />
<vehicle id="MotorCycle_204" type="MotorCycle" route="route_2" depart="473" />
<vehicle id="MotorCycle_205" type="Auto" route="route_4" depart="473" />
<vehicle id="MotorCycle_206" type="MotorCycle" route="route_4" depart="473" />
<vehicle id="Bus_207" type="MotorCycle" route="route_7" depart="473" />
<vehicle id="Auto_208" type="MotorCycle" route="route_1" depart="474" />
<vehicle id="Car_209" type="MotorCycle" route="route_2" depart="474" />
<vehicle id="Car_210" type="MotorCycle" route="route_6" depart="474" />
<vehicle id="Car_211" type="MotorCycle" route="route_1" depart="475" />
<vehicle id="Bus_212" type="Auto" route="route_2" depart="475" />
<vehicle id="Car_213" type="MotorCycle" route="route_8" depart="475" />
<vehicle id="MotorCycle_214" type="MotorCycle" route="route_1" depart="476" />
<vehicle id="Car_215" type="MotorCycle" route="route_2" depart="476" />
<vehicle id="Auto_216" type="MotorCycle" route="route_8" depart="476" />
<vehicle id="MotorCycle_217" type="MotorCycle" route="route_2" depart="477" />
<vehicle id="Bus_218" type="MotorCycle" route="route_1" depart="478" />
<vehicle id="Car_219" type="MotorCycle" route="route_1" depart="479" />
<vehicle id="Auto_220" type="MotorCycle" route="route_2" depart="479" />
<vehicle id="MotorCycle_221" type="MotorCycle" route="route_1" depart="480" />
<vehicle id="Bus_222" type="MotorCycle" route="route_2" depart="480" />
<vehicle id="Bus_223" type="Car" route="route_2" depart="480" />
<vehicle id="Bus_224" type="MotorCycle" route="route_9" depart="480" />
<vehicle id="Car_225" type="MotorCycle" route="route_1" depart="481" />
<vehicle id="Auto_226" type="Car" route="route_2" depart="481" />
<vehicle id="Auto_227" type="MotorCycle" route="route_8" depart="481" />
<vehicle id="Auto_228" type="MotorCycle" route="route_2" depart="482" />
<vehicle id="Auto_229" type="MotorCycle" route="route_3" depart="483" />
<vehicle id="Auto_230" type="Bus" route="route_1" depart="484" />
<vehicle id="Auto_231" type="MotorCycle" route="route_1" depart="484" />
<vehicle id="Car_232" type="MotorCycle" route="route_2" depart="484" />
<vehicle id="Car_233" type="MotorCycle" route="route_1" depart="485" />
<vehicle id="Auto_234" type="MotorCycle" route="route_7" depart="485" />
<vehicle id="Bus_235" type="MotorCycle" route="route_1" depart="486" />
<vehicle id="Auto_236" type="MotorCycle" route="route_2" depart="486" />
<vehicle id="Car_237" type="MotorCycle" route="route_5" depart="486" />
<vehicle id="MotorCycle_238" type="MotorCycle" route="route_1" depart="487" />
<vehicle id="MotorCycle_239" type="Car" route="route_1" depart="487" />
<vehicle id="MotorCycle_240" type="MotorCycle" route="route_2" depart="487" />
<vehicle id="MotorCycle_241" type="Car" route="route_5" depart="488" />
<vehicle id="Auto_242" type="MotorCycle" route="route_2" depart="489" />
<vehicle id="Bus_243" type="MotorCycle" route="route_1" depart="490" />
<vehicle id="Bus_244" type="MotorCycle" route="route_2" depart="490" />
<vehicle id="Auto_245" type="MotorCycle" route="route_3" depart="490" />
<vehicle id="Auto_246" type="MotorCycle" route="route_8" depart="490" />
<vehicle id="Car_247" type="MotorCycle" route="route_10" depart="490" />
<vehicle id="Car_248" type="MotorCycle" route="route_1" depart="491" />
<vehicle id="Car_249" type="MotorCycle" route="route_1" depart="492" />
<vehicle id="Auto_250" type="MotorCycle" route="route_2" depart="492" />
<vehicle id="Car_251" type="MotorCycle" route="route_2" depart="493" />
<vehicle id="Car_252" type="Car" route="route_2" depart="493" />
<vehicle id="Bus_253" type="MotorCycle" route="route_1" depart="494" />
<vehicle id="Car_254" type="Auto" route="route_2" depart="494" />
<vehicle id="Car_255" type="MotorCycle" route="route_2" depart="494" />
<vehicle id="Car_256" type="Car" route="route_2" depart="494" />
<vehicle id="Auto_257" type="MotorCycle" route="route_5" depart="494" />
<vehicle id="Auto_258" type="Car" route="route_5" depart="494" />
<vehicle id="Bus_259" type="Car" route="route_9" depart="494" />
<vehicle id="MotorCycle_260" type="MotorCycle" route="route_1" depart="495" />
<vehicle id="MotorCycle_261" type="Car" route="route_1" depart="495" />
<vehicle id="Bus_262" type="MotorCycle" route="route_2" depart="495" />
<vehicle id="Car_263" type="MotorCycle" route="route_5" depart="495" />
<vehicle id="Auto_264" type="MotorCycle" route="route_9" depart="495" />
<vehicle id="Car_265" type="MotorCycle" route="route_1" depart="496" />
<vehicle id="MotorCycle_266" type="MotorCycle" route="route_1" depart="497" />
<vehicle id="Bus_267" type="Auto" route="route_2" depart="497" />
<vehicle id="Bus_268" type="MotorCycle" route="route_2" depart="497" />
<vehicle id="MotorCycle_269" type="MotorCycle" route="route_1" depart="498" />
<vehicle id="Auto_270" type="MotorCycle" route="route_1" depart="499" />
<vehicle id="Auto_271" type="Car" route="route_1" depart="499" />
<vehicle id="Car_272" type="MotorCycle" route="route_2" depart="499" />
<vehicle id="Auto_273" type="MotorCycle" route="route_8" depart="499" />
<vehicle id="Bus_274" type="MotorCycle" route="route_1" depart="500" />
<vehicle id="Bus_275" type="Car" route="route_1" depart="500" />
<vehicle id="Bus_276" type="MotorCycle" route="route_8" depart="501" />
<vehicle id="MotorCycle_277" type="MotorCycle" route="route_10" depart="504" />
<vehicle id="Bus_278" type="Auto" route="route_9" depart="510" />
<vehicle id="Bus_279" type="MotorCycle" route="route_9" depart="510" />
<vehicle id="Bus_280" type="Car" route="route_9" depart="510" />
<vehicle id="Bus_281" type="Auto" route="route_1" depart="511" />
<vehicle id="Bus_282" type="Bus" route="route_10" depart="516" />
<vehicle id="Bus_283" type="MotorCycle" route="route_10" depart="516" />
<vehicle id="Car_284" type="Bus" route="route_8" depart="517" />
<vehicle id="Car_285" type="MotorCycle" route="route_8" depart="517" />
<vehicle id="Auto_286" type="MotorCycle" route="route_1" depart="519" />
<vehicle id="Car_287" type="MotorCycle" route="route_9" depart="520" />
<vehicle id="Car_288" type="MotorCycle" route="route_1" depart="522" />
<vehicle id="Car_289" type="Car" route="route_1" depart="522" />
<vehicle id="Auto_290" type="MotorCycle" route="route_5" depart="525" />
<vehicle id="Car_291" type="MotorCycle" route="route_8" depart="528" />
<vehicle id="Car_292" type="MotorCycle" route="route_1" depart="539" />
<vehicle id="Bus_293" type="MotorCycle" route="route_7" depart="548" />
<vehicle id="Car_294" type="MotorCycle" route="route_5" depart="553" />
<vehicle id="Bus_295" type="MotorCycle" route="route_6" depart="554" />
<vehicle id="Car_296" type="Car" route="route_6" depart="556" />
<vehicle id="Auto_297" type="MotorCycle" route="route_8" depart="558" />
<vehicle id="Car_298" type="MotorCycle" route="route_3" depart="559" />
<vehicle id="MotorCycle_299" type="MotorCycle" route="route_4" depart="561" />
<vehicle id="Auto_300" type="MotorCycle" route="route_10" depart="563" />
<vehicle id="Auto_301" type="MotorCycle" route="route_1" depart="571" />
<vehicle id="MotorCycle_302" type="Car" route="route_8" depart="579" />
<vehicle id="Bus_303" type="Car" route="route_6" depart="580" />
<vehicle id="Auto_304" type="MotorCycle" route="route_10" depart="592" />
<vehicle id="MotorCycle_305" type="MotorCycle" route="route_7" depart="593" />
<vehicle id="Car_306" type="MotorCycle" route="route_5" depart="602" />
<vehicle id="Car_307" type="Car" route="route_5" depart="602" />
<vehicle id="MotorCycle_308" type="MotorCycle" route="route_5" depart="605" />
<vehicle id="Auto_309" type="MotorCycle" route="route_4" depart="606" />
<vehicle id="Auto_310" type="Car" route="route_1" depart="607" />
<vehicle id="MotorCycle_311" type="Bus" route="route_4" depart="607" />
<vehicle id="MotorCycle_312" type="MotorCycle" route="route_4" depart="607" />
<vehicle id="MotorCycle_313" type="MotorCycle" route="route_5" depart="616" />
<vehicle id="Car_314" type="MotorCycle" route="route_10" depart="616" />
<vehicle id="Auto_315" type="Car" route="route_9" depart="619" />
<vehicle id="Bus_316" type="MotorCycle" route="route_1" depart="623" />
<vehicle id="Bus_317" type="Car" route="route_1" depart="623" />
<vehicle id="Auto_318" type="MotorCycle" route="route_13" depart="623" />
<vehicle id="Auto_319" type="MotorCycle" route="route_2" depart="624" />
<vehicle id="Auto_320" type="Car" route="route_2" depart="624" />
<vehicle id="MotorCycle_321" type="MotorCycle" route="route_10" depart="627" />
<vehicle id="Car_322" type="MotorCycle" route="route_8" depart="629" />
<vehicle id="Car_323" type="MotorCycle" route="route_1" depart="639" />
<vehicle id="Car_324" type="Car" route="route_1" depart="639" />
<vehicle id="Auto_325" type="MotorCycle" route="route_3" depart="649" />
<vehicle id="Car_326" type="MotorCycle" route="route_9" depart="650" />
<vehicle id="MotorCycle_327" type="MotorCycle" route="route_5" depart="654" />
<vehicle id="Auto_328" type="MotorCycle" route="route_3" depart="668" />
<vehicle id="Bus_329" type="MotorCycle" route="route_9" depart="671" />
<vehicle id="MotorCycle_330" type="MotorCycle" route="route_1" depart="679" />
<vehicle id="Car_331" type="MotorCycle" route="route_1" depart="691" />
<vehicle id="MotorCycle_332" type="MotorCycle" route="route_4" depart="694" />
<vehicle id="MotorCycle_333" type="Car" route="route_4" depart="694" />
<vehicle id="Car_334" type="MotorCycle" route="route_2" depart="695" />
<vehicle id="MotorCycle_335" type="Car" route="route_2" depart="701" />
<vehicle id="Bus_336" type="MotorCycle" route="route_9" depart="701" />
<vehicle id="Bus_337" type="MotorCycle" route="route_2" depart="704" />
<vehicle id="Car_338" type="MotorCycle" route="route_1" depart="711" />
<vehicle id="Car_339" type="MotorCycle" route="route_2" depart="715" />
<vehicle id="Bus_340" type="MotorCycle" route="route_9" depart="717" />
<vehicle id="MotorCycle_341" type="MotorCycle" route="route_2" depart="723" />
<vehicle id="MotorCycle_342" type="Car" route="route_2" depart="723" />
<vehicle id="MotorCycle_343" type="MotorCycle" route="route_2" depart="727" />
<vehicle id="Auto_344" type="Auto" route="route_9" depart="729" />
<vehicle id="Bus_345" type="MotorCycle" route="route_10" depart="729" />
<vehicle id="Auto_346" type="MotorCycle" route="route_3" depart="732" />
<vehicle id="Bus_347" type="MotorCycle" route="route_6" depart="734" />
<vehicle id="Auto_348" type="MotorCycle" route="route_8" depart="736" />
<vehicle id="Auto_349" type="MotorCycle" route="route_5" depart="739" />
<vehicle id="Car_350" type="MotorCycle" route="route_8" depart="739" />
<vehicle id="MotorCycle_351" type="MotorCycle" route="route_2" depart="744" />
<vehicle id="Bus_352" type="MotorCycle" route="route_7" depart="745" />
<vehicle id="MotorCycle_353" type="MotorCycle" route="route_8" depart="749" />
<vehicle id="MotorCycle_354" type="Car" route="route_8" depart="749" />
<vehicle id="MotorCycle_355" type="MotorCycle" route="route_6" depart="752" />
<vehicle id="MotorCycle_356" type="MotorCycle" route="route_7" depart="753" />
<vehicle id="MotorCycle_357" type="MotorCycle" route="route_7" depart="756" />
<vehicle id="MotorCycle_358" type="Car" route="route_7" depart="756" />
<vehicle id="Auto_359" type="MotorCycle" route="route_3" depart="768" />
<vehicle id="Bus_360" type="MotorCycle" route="route_8" depart="769" />
<vehicle id="Bus_361" type="Car" route="route_8" depart="769" />
<vehicle id="Bus_362" type="MotorCycle" route="route_1" depart="775" />
<vehicle id="Auto_363" type="MotorCycle" route="route_2" depart="777" />
<vehicle id="Auto_364" type="MotorCycle" route="route_8" depart="777" />
<vehicle id="Bus_365" type="MotorCycle" route="route_5" depart="778" />
<vehicle id="Bus_366" type="MotorCycle" route="route_4" depart="780" />
<vehicle id="Bus_367" type="Car" route="route_4" depart="780" />
<vehicle id="Bus_368" type="MotorCycle" route="route_6" depart="782" />
<vehicle id="Car_369" type="MotorCycle" route="route_8" depart="782" />
<vehicle id="MotorCycle_370" type="Car" route="route_10" depart="783" />
<vehicle id="MotorCycle_371" type="MotorCycle" route="route_1" depart="784" />
<vehicle id="Auto_372" type="Bus" route="route_5" depart="791" />