<routes>
<vType id="Bus" accel="0.6" decel="3.5" sigma="0.5" length="10.1" minGap="1.0" maxSpeed="16.67" carFollowModel="Wiedemann" guiShape="bus" width="2.45" latAlignment="left" laneChangeModel="SL2015" lcStrategic="0.5" lcCooperative="0.0"/>
<vType id="Auto" accel="0.7" decel="4.5" sigma="0.5" length="2.6" minGap="0.3" maxSpeed="16" carFollowModel="Wiedemann" guiShape="passenger/sedan" width="1.25" latAlignment="left" laneChangeModel="SL2015" lcStrategic="0.5" lcCooperative="0.0" />
<vType id="MotorCycle" accel="0.9" decel="3.5" sigma="0.5" length="1.85" minGap="0.15"  carFollowModel="Wiedemann" maxSpeed="17" guiShape="motorcycle" width="0.7" latAlignment="left" laneChangeModel="SL2015" lcStrategic="0.5" lcCooperative="0.0"/>
<vType id="Car" accel="0.8" decel="4.5" sigma="0.5" length="3.6" minGap="0.5" maxSpeed="40" carFollowModel="Wiedemann" guiShape="passenger" width="1.5" latAlignment="left" laneChangeModel="SL2015" lcStrategic="0.5" lcCooperative="0.0"/>
<vType id="emergency" accel="2.8" decel="5.5" sigma="0.5" length="3.6" minGap="0.5" maxSpeed="120.6" carFollowModel="Wiedemann" guiShape="emergency" width="1.5" latAlignment="left" laneChangeModel="SL2015" lcStrategic="0.5" lcCooperative="0.0" vClass="emergency" speedFactor="1.9" jmDriveAfterRedTime="300" jmDriveAfterRedSpeed="5.56">
<param key="has.bluelight.device" value="true"/>
<param key="has.fcd.device" value="true"/> 
</vType>
	<route id="route_0" edges="78[0] 56a 56b 78[1][1]" />
	<route id="route_1" edges="78[0] 56a 56b 78[1][1] 189[0] 189[1][0]+20000 189[1][1] 188 87[0] 20001+87[1][0] 87[1][1] m90 89[0] 20002+89[1][0] 89[1][1] 91 186 109[0] 109[1][0]+20003 109[1][1] 116 46 134 134b -gneE0" />
        <route id="route_2" edges="gneE0 133 31 115 110 185 92 90 m91 88 187 190 77[0] 77[1][1] " />
        <route id="route_3" edges="78[0] 56a 56b 79 68 11 84" />
        <route id="route_4" edges="78[0] 56a 56b 21a 21b " /> 
        <route id="route_5" edges="75 77[0] 79 68 11 84 " />
        <route id="route_6" edges="75 77[0] 21a 21b" />
        <route id="route_7" edges="gneE0 133 31 201 201c 204a[0] " />
        <route id="route_8" edges="gneE0 133 31 113 209" />
        <route id="route_9" edges="119 116 46 113 209" />
        <route id="route_10" edges="119 116 46 201 201c 204a[0]" />
        <route id="route_11" edges="59" />
        <route id="route_12" edges="59" />
        <route id="route_13" edges="59" />
        <route id="route_14" edges="59" />
        <route id="route_15" edges="59" />
        <route id="route_16" edges="59" />
        <route id="route_17" edges="59" />
        <route id="route_18" edges="59" />
        <route id="route_19" edges="59" />
        <route id="route_20" edges="59" />
        <route id="route_21" edges="59" />
        <route id="route_22" edges="59" />
        <route id="route_23" edges="59" />

	<route id="route_24" edges="59"/>
<vehicle id="emergency_0" type="emergency" route="route_11" depart="0" />
<vehicle id="Bus_0" type="Bus" route="route_11" depart="0" />
<vehicle id="Car_0" type="Car" route="route_10" depart="0" />
<vehicle id="Auto_1" type="Auto" route="route_1" depart="1" />
<vehicle id="Auto_2" type="MotorCycle" route="route_1" depart="1" />
<vehicle id="Auto_3" type="Car" route="route_1" depart="1" />
<vehicle id="Bus_4" type="MotorCycle" route="route_2" depart="1" />
<vehicle id="Bus_5" type="Car" route="route_2" depart="1" />
<vehicle id="MotorCycle_6" type="Auto" route="route_1" depart="2" />
<vehicle id="Auto_7" type="MotorCycle" route="route_2" depart="2" />
<vehicle id="Auto_8" type="MotorCycle" route="route_7" depart="3" />
<vehicle id="Car_9" type="Bus" route="route_1" depart="4" />
<vehicle id="Car_10" type="Car" route="route_1" depart="4" />
<vehicle id="MotorCycle_11" type="MotorCycle" route="route_2" depart="4" />
<vehicle id="Bus_12" type="MotorCycle" route="route_11" depart="6" />
<vehicle id="Car_13" type="MotorCycle" route="route_1" depart="7" />
<vehicle id="Bus_14" type="MotorCycle" route="route_2" depart="7" />
<vehicle id="Bus_15" type="Car" route="route_2" depart="7" />
<vehicle id="Car_16" type="MotorCycle" route="route_4" depart="10" />
<vehicle id="MotorCycle_17" type="MotorCycle" route="route_5" depart="13" />
<vehicle id="MotorCycle_18" type="Car" route="route_5" depart="13" />
<vehicle id="Car_19" type="MotorCycle" route="route_1" depart="17" />
<vehicle id="MotorCycle_20" type="MotorCycle" route="route_2" depart="18" />
<vehicle id="MotorCycle_21" type="Car" route="route_2" depart="18" />
<vehicle id="MotorCycle_22" type="MotorCycle" route="route_5" depart="18" />
<vehicle id="MotorCycle_23" type="Car" route="route_5" depart="18" />
<vehicle id="Auto_24" type="MotorCycle" route="route_2" depart="19" />
<vehicle id="Auto_25" type="MotorCycle" route="route_7" depart="20" />
<vehicle id="Auto_26" type="Car" route="route_7" depart="20" />
<vehicle id="Bus_27" type="MotorCycle" route="route_5" depart="21" />
<vehicle id="MotorCycle_28" type="MotorCycle" route="route_1" depart="22" />
<vehicle id="MotorCycle_29" type="MotorCycle" route="route_1" depart="23" />
<vehicle id="MotorCycle_30" type="MotorCycle" route="route_1" depart="24" />
<vehicle id="MotorCycle_31" type="MotorCycle" route="route_2" depart="24" />
<vehicle id="MotorCycle_32" type="MotorCycle" route="route_1" depart="25" />
<vehicle id="Bus_33" type="MotorCycle" route="route_2" depart="28" />
<vehicle id="Bus_34" type="MotorCycle" route="route_1" depart="29" />
<vehicle id="Auto_35" type="MotorCycle" route="route_2" depart="29" />
<vehicle id="Car_36" type="MotorCycle" route="route_9" depart="30" />
<vehicle id="MotorCycle_37" type="MotorCycle" route="route_10" depart="30" />
<vehicle id="MotorCycle_38" type="MotorCycle" route="route_1" depart="31" />
<vehicle id="Car_39" type="MotorCycle" route="route_2" depart="36" />
<vehicle id="MotorCycle_40" type="MotorCycle" route="route_1" depart="39" />
<vehicle id="Car_41" type="MotorCycle" route="route_2" depart="39" />
<vehicle id="Car_42" type="Car" route="route_2" depart="39" />
<vehicle id="Auto_43" type="MotorCycle" route="route_10" depart="39" />
<vehicle id="Bus_44" type="MotorCycle" route="route_2" depart="40" />
<vehicle id="Bus_45" type="Car" route="route_2" depart="40" />
<vehicle id="Auto_46" type="MotorCycle" route="route_2" depart="43" />
<vehicle id="Bus_47" type="MotorCycle" route="route_2" depart="46" />
<vehicle id="Bus_48" type="Car" route="route_2" depart="46" />
<vehicle id="Auto_49" type="Auto" route="route_5" depart="46" />
<vehicle id="MotorCycle_50" type="MotorCycle" route="route_1" depart="47" />
<vehicle id="MotorCycle_51" type="MotorCycle" route="route_8" depart="47" />
<vehicle id="MotorCycle_52" type="Car" route="route_8" depart="47" />
<vehicle id="Auto_53" type="MotorCycle" route="route_10" depart="47" />
<vehicle id="Bus_54" type="MotorCycle" route="route_2" depart="48" />
<vehicle id="Bus_55" type="MotorCycle" route="route_5" depart="50" />
<vehicle id="Bus_56" type="Car" route="route_5" depart="50" />
<vehicle id="Auto_57" type="Auto" route="route_2" depart="66" />
<vehicle id="Auto_58" type="MotorCycle" route="route_2" depart="66" />
<vehicle id="Car_59" type="MotorCycle" route="route_1" depart="75" />
<vehicle id="MotorCycle_60" type="MotorCycle" route="route_2" depart="75" />
<vehicle id="MotorCycle_61" type="Car" route="route_2" depart="75" />
<vehicle id="MotorCycle_62" type="MotorCycle" route="route_3" depart="85" />
<vehicle id="MotorCycle_63" type="Car" route="route_3" depart="85" />
<vehicle id="Bus_64" type="MotorCycle" route="route_2" depart="87" />
<vehicle id="Car_65" type="Auto" route="route_4" depart="92" />
<vehicle id="Car_66" type="MotorCycle" route="route_4" depart="92" />
<vehicle id="Auto_67" type="MotorCycle" route="route_1" depart="99" />
<vehicle id="Bus_68" type="Auto" route="route_1" depart="104" />
<vehicle id="Bus_69" type="MotorCycle" route="route_1" depart="104" />
<vehicle id="Car_70" type="Auto" route="route_2" depart="106" />
<vehicle id="MotorCycle_71" type="Car" route="route_1" depart="107" />
<vehicle id="Auto_72" type="MotorCycle" route="route_9" depart="109" />
<vehicle id="Bus_73" type="MotorCycle" route="route_5" depart="111" />
<vehicle id="Bus_74" type="MotorCycle" route="route_10" depart="118" />
<vehicle id="Bus_75" type="Auto" route="route_2" depart="124" />
<vehicle id="Bus_76" type="MotorCycle" route="route_2" depart="124" />
<vehicle id="Bus_77" type="Car" route="route_2" depart="124" />
<vehicle id="MotorCycle_78" type="MotorCycle" route="route_1" depart="129" />
<vehicle id="Car_79" type="MotorCycle" route="route_7" depart="135" />
<vehicle id="MotorCycle_80" type="MotorCycle" route="route_9" depart="135" />
<vehicle id="Car_81" type="MotorCycle" route="route_1" depart="136" />
<vehicle id="Bus_82" type="MotorCycle" route="route_6" depart="136" />
<vehicle id="Bus_83" type="Car" route="route_6" depart="136" />
<vehicle id="Bus_84" type="MotorCycle" route="route_6" depart="137" />
<vehicle id="Auto_85" type="MotorCycle" route="route_8" depart="137" />
<vehicle id="Auto_86" type="Bus" route="route_6" depart="139" />
<vehicle id="Auto_87" type="MotorCycle" route="route_6" depart="139" />
<vehicle id="Auto_88" type="Car" route="route_6" depart="139" />
<vehicle id="Car_89" type="MotorCycle" route="route_6" depart="142" />
<vehicle id="Car_90" type="Car" route="route_6" depart="142" />
<vehicle id="Auto_91" type="MotorCycle" route="route_10" depart="142" />
<vehicle id="Auto_92" type="MotorCycle" route="route_2" depart="145" />
<vehicle id="Bus_93" type="MotorCycle" route="route_10" depart="145" />
<vehicle id="MotorCycle_94" type="MotorCycle" route="route_2" depart="148" />
<vehicle id="Auto_95" type="MotorCycle" route="route_2" depart="149" />
<vehicle id="Car_96" type="MotorCycle" route="route_6" depart="161" />
<vehicle id="MotorCycle_97" type="MotorCycle" route="route_8" depart="161" />
<vehicle id="Bus_98" type="MotorCycle" route="route_2" depart="167" />
<vehicle id="Bus_99" type="MotorCycle" route="route_10" depart="173" />
<vehicle id="Auto_100" type="MotorCycle" route="route_6" depart="177" />
<vehicle id="Auto_101" type="MotorCycle" route="route_10" depart="177" />
<vehicle id="Car_102" type="MotorCycle" route="route_2" depart="181" />
<vehicle id="Bus_103" type="MotorCycle" route="route_7" depart="182" />
<vehicle id="Bus_104" type="Car" route="route_7" depart="182" />
<vehicle id="MotorCycle_105" type="MotorCycle" route="route_2" depart="185" />
<vehicle id="MotorCycle_106" type="MotorCycle" route="route_4" depart="186" />
<vehicle id="Bus_107" type="MotorCycle" route="route_2" depart="200" />
<vehicle id="Bus_108" type="Car" route="route_2" depart="200" />
<vehicle id="Bus_109" type="MotorCycle" route="route_9" depart="207" />
<vehicle id="Auto_110" type="MotorCycle" route="route_2" depart="215" />
<vehicle id="Bus_111" type="MotorCycle" route="route_4" depart="221" />
<vehicle id="MotorCycle_112" type="MotorCycle" route="route_10" depart="231" />
<vehicle id="Auto_113" type="MotorCycle" route="route_8" depart="232" />
<vehicle id="Car_114" type="MotorCycle" route="route_4" depart="234" />
<vehicle id="Bus_115" type="Car" route="route_4" depart="241" />
<vehicle id="MotorCycle_116" type="MotorCycle" route="route_9" depart="243" />
<vehicle id="MotorCycle_117" type="MotorCycle" route="route_4" depart="254" />
<vehicle id="Bus_118" type="Car" route="route_2" depart="255" />
<vehicle id="Auto_119" type="MotorCycle" route="route_1" depart="257" />
<vehicle id="MotorCycle_120" type="MotorCycle" route="route_6" depart="261" />
<vehicle id="Car_121" type="MotorCycle" route="route_5" depart="264" />
<vehicle id="Bus_122" type="MotorCycle" route="route_3" depart="268" />
<vehicle id="MotorCycle_123" type="MotorCycle" route="route_10" depart="268" />
<vehicle id="MotorCycle_124" type="MotorCycle" route="route_1" depart="276" />
<vehicle id="Bus_125" type="MotorCycle" route="route_10" depart="276" />
<vehicle id="Bus_126" type="Car" route="route_10" depart="276" />
<vehicle id="Car_127" type="MotorCycle" route="route_1" depart="281" />
<vehicle id="MotorCycle_128" type="MotorCycle" route="route_8" depart="282" />
<vehicle id="MotorCycle_129" type="Car" route="route_8" depart="282" />
<vehicle id="Bus_130" type="MotorCycle" route="route_7" depart="284" />
<vehicle id="MotorCycle_131" type="MotorCycle" route="route_7" depart="288" />
<vehicle id="Car_132" type="MotorCycle" route="route_1" depart="291" />
<vehicle id="Car_133" type="MotorCycle" route="route_3" depart="291" />
<vehicle id="Car_134" type="MotorCycle" route="route_10" depart="296" />
<vehicle id="Bus_135" type="Auto" route="route_7" depart="299" />
<vehicle id="Bus_136" type="MotorCycle" route="route_7" depart="299" />
<vehicle id="Auto_137" type="Car" route="route_9" depart="302" />
<vehicle id="Car_138" type="MotorCycle" route="route_10" depart="304" />
<vehicle id="Auto_139" type="MotorCycle" route="route_3" depart="305" />
<vehicle id="Car_140" type="MotorCycle" route="route_10" depart="308" />
<vehicle id="Bus_141" type="Auto" route="route_1" depart="316" />
<vehicle id="Bus_142" type="MotorCycle" route="route_1" depart="316" />
<vehicle id="MotorCycle_143" type="MotorCycle" route="route_6" depart="324" />
<vehicle id="Car_144" type="MotorCycle" route="route_10" depart="326" />
<vehicle id="Car_145" type="MotorCycle" route="route_6" depart="329" />
<vehicle id="MotorCycle_146" type="MotorCycle" route="route_10" depart="337" />
<vehicle id="MotorCycle_147" type="MotorCycle" route="route_1" depart="340" />
<vehicle id="MotorCycle_148" type="Car" route="route_1" depart="340" />
<vehicle id="MotorCycle_149" type="MotorCycle" route="route_8" depart="350" />
<vehicle id="Bus_150" type="Auto" route="route_9" depart="358" />
<vehicle id="Bus_151" type="MotorCycle" route="route_9" depart="358" />
<vehicle id="Auto_152" type="MotorCycle" route="route_1" depart="361" />
<vehicle id="Bus_153" type="MotorCycle" route="route_2" depart="364" />
<vehicle id="Car_154" type="Car" route="route_1" depart="366" />
<vehicle id="Car_155" type="MotorCycle" route="route_6" depart="367" />
<vehicle id="Auto_156" type="MotorCycle" route="route_1" depart="387" />
<vehicle id="Auto_157" type="MotorCycle" route="route_10" depart="390" />
<vehicle id="MotorCycle_158" type="MotorCycle" route="route_3" depart="391" />
<vehicle id="Auto_159" type="Car" route="route_1" depart="394" />
<vehicle id="Car_160" type="MotorCycle" route="route_4" depart="395" />
<vehicle id="Car_161" type="Car" route="route_4" depart="395" />
<vehicle id="Car_162" type="MotorCycle" route="route_2" depart="397" />
<vehicle id="Bus_163" type="MotorCycle" route="route_7" depart="397" />
<vehicle id="Bus_164" type="MotorCycle" route="route_2" depart="399" />
<vehicle id="Bus_165" type="Car" route="route_2" depart="399" />
<vehicle id="Auto_166" type="MotorCycle" route="route_1" depart="401" />
<vehicle id="Car_167" type="MotorCycle" route="route_10" depart="406" />
<vehicle id="MotorCycle_168" type="MotorCycle" route="route_1" depart="407" />
<vehicle id="Car_169" type="MotorCycle" route="route_2" depart="411" />
<vehicle id="Auto_170" type="Auto" route="route_9" depart="411" />
<vehicle id="Auto_171" type="MotorCycle" route="route_9" depart="411" />
<vehicle id="Auto_172" type="MotorCycle" route="route_1" depart="412" />
<vehicle id="Auto_173" type="Car" route="route_1" depart="412" />
<vehicle id="Bus_174" type="MotorCycle" route="route_2" depart="419" />
<vehicle id="Car_175" type="Car" route="route_3" depart="421" />
<vehicle id="Auto_176" type="MotorCycle" route="route_10" depart="427" />
<vehicle id="Auto_177" type="Auto" route="route_8" depart="429" />
<vehicle id="Auto_178" type="MotorCycle" route="route_8" depart="429" />
<vehicle id="Car_179" type="MotorCycle" route="route_6" depart="432" />
<vehicle id="Car_180" type="Car" route="route_6" depart="432" />
<vehicle id="Car_181" type="MotorCycle" route="route_10" depart="432" />
<vehicle id="MotorCycle_182" type="MotorCycle" route="route_6" depart="436" />
<vehicle id="Car_183" type="MotorCycle" route="route_3" depart="438" />
<vehicle id="Car_184" type="Car" route="route_3" depart="438" />
<vehicle id="Bus_185" type="MotorCycle" route="route_3" depart="440" />
<vehicle id="Bus_186" type="Car" route="route_3" depart="440" />
<vehicle id="Auto_187" type="MotorCycle" route="route_6" depart="441" />
<vehicle id="Car_188" type="MotorCycle" route="route_1" depart="445" />
<vehicle id="Bus_189" type="MotorCycle" route="route_1" depart="450" />
<vehicle id="Bus_190" type="MotorCycle" route="route_2" depart="451" />
<vehicle id="Car_191" type="MotorCycle" route="route_1" depart="452" />
<vehicle id="Car_192" type="MotorCycle" route="route_2" depart="452" />
<vehicle id="Auto_193" type="MotorCycle" route="route_5" depart="452" />
<vehicle id="Auto_194" type="MotorCycle" route="route_7" depart="452" />
<vehicle id="Auto_195" type="Car" route="route_10" depart="452" />
<vehicle id="Car_196" type="MotorCycle" route="route_1" depart="453" />
<vehicle id="Auto_197" type="MotorCycle" route="route_2" depart="453" />
<vehicle id="Car_198" type="MotorCycle" route="route_4" depart="453" />
<vehicle id="Auto_199" type="MotorCycle" route="route_1" depart="454" />
<vehicle id="MotorCycle_200" type="MotorCycle" route="route_2" depart="454" />
<vehicle id="Car_201" type="MotorCycle" route="route_7" depart="454" />
<vehicle id="Car_202" type="MotorCycle" route="route_9" depart="454" />
<vehicle id="Car_203" type="MotorCycle" route="route_1" depart="455" />
<vehicle id="Car_204" type="MotorCycle" route="route_2" depart="455" />
<vehicle id="Bus_205" type="MotorCycle" route="route_1" depart="456" />
<vehicle id="Bus_206" type="MotorCycle" route="route_8" depart="456" />
<vehicle id="Auto_207" type="MotorCycle" route="route_2" depart="457" />
<vehicle id="Auto_208" type="MotorCycle" route="route_3" depart="457" />
<vehicle id="Auto_209" type="Car" route="route_3" depart="457" />
<vehicle id="Car_210" type="MotorCycle" route="route_7" depart="457" />
<vehicle id="MotorCycle_211" type="Auto" route="route_1" depart="458" />
<vehicle id="MotorCycle_212" type="MotorCycle" route="route_1" depart="458" />
<vehicle id="MotorCycle_213" type="Car" route="route_1" depart="458" />
<vehicle id="Bus_214" type="MotorCycle" route="route_1" depart="459" />
<vehicle id="Car_215" type="MotorCycle" route="route_10" depart="459" />
<vehicle id="Bus_216" type="Bus" route="route_1" depart="460" />
<vehicle id="Bus_217" type="MotorCycle" route="route_1" depart="460" />
<vehicle id="Bus_218" type="Car" route="route_1" depart="461" />
<vehicle id="Bus_219" type="Auto" route="route_2" depart="462" />
<vehicle id="Auto_220" type="MotorCycle" route="route_1" depart="463" />
<vehicle id="MotorCycle_221" type="MotorCycle" route="route_2" depart="463" />
<vehicle id="Auto_222" type="MotorCycle" route="route_8" depart="463" />
<vehicle id="Auto_223" type="MotorCycle" route="route_2" depart="464" />
<vehicle id="Bus_224" type="MotorCycle" route="route_2" depart="465" />
<vehicle id="Bus_225" type="MotorCycle" route="route_1" depart="466" />
<vehicle id="Auto_226" type="MotorCycle" route="route_2" depart="466" />
<vehicle id="MotorCycle_227" type="MotorCycle" route="route_1" depart="467" />
<vehicle id="Auto_228" type="MotorCycle" route="route_2" depart="467" />
<vehicle id="Bus_229" type="MotorCycle" route="route_3" depart="467" />
<vehicle id="MotorCycle_230" type="MotorCycle" route="route_1" depart="468" />
<vehicle id="MotorCycle_231" type="Car" route="route_1" depart="468" />
<vehicle id="Auto_232" type="MotorCycle" route="route_2" depart="468" />
<vehicle id="Auto_233" type="MotorCycle" route="route_2" depart="469" />
<vehicle id="Auto_234" type="MotorCycle" route="route_1" depart="470" />
<vehicle id="Auto_235" type="MotorCycle" route="route_2" depart="470" />
<vehicle id="MotorCycle_236" type="MotorCycle" route="route_4" depart="470" />
<vehicle id="Car_237" type="MotorCycle" route="route_1" depart="471" />
<vehicle id="MotorCycle_238" type="MotorCycle" route="route_2" depart="471" />
<vehicle id="Auto_239" type="MotorCycle" route="route_5" depart="471" />
<vehicle id="Auto_240" type="MotorCycle" route="route_1" depart="472" />
<vehicle id="MotorCycle_241" type="MotorCycle" route="route_1" depart="473" />
<vehicle id="Car_242" type="Auto" route="route_8" depart="473" />
<vehicle id="Auto_243" type="MotorCycle" route="route_1" depart="474" />
<vehicle id="Car_244" type="Auto" route="route_1" depart="475" />
<vehicle id="Bus_245" type="MotorCycle" route="route_2" depart="475" />
<vehicle id="Bus_246" type="MotorCycle" route="route_2" depart="476" />
<vehicle id="Bus_247" type="Car" route="route_2" depart="476" />
<vehicle id="Auto_248" type="MotorCycle" route="route_1" depart="477" />
<vehicle id="Car_249" type="MotorCycle" route="route_2" depart="477" />
<vehicle id="Bus_250" type="MotorCycle" route="route_1" depart="478" />
<vehicle id="Bus_251" type="MotorCycle" route="route_2" depart="478" />
<vehicle id="Bus_252" type="MotorCycle" route="route_7" depart="478" />
<vehicle id="MotorCycle_253" type="MotorCycle" route="route_1" depart="479" />
<vehicle id="Auto_254" type="MotorCycle" route="route_2" depart="479" />
<vehicle id="Auto_255" type="MotorCycle" route="route_3" depart="479" />
<vehicle id="Car_256" type="MotorCycle" route="route_1" depart="480" />
<vehicle id="Car_257" type="Car" route="route_2" depart="480" />
<vehicle id="Auto_258" type="MotorCycle" route="route_7" depart="480" />
<vehicle id="MotorCycle_259" type="MotorCycle" route="route_9" depart="480" />
<vehicle id="Auto_260" type="MotorCycle" route="route_2" depart="481" />
<vehicle id="MotorCycle_261" type="MotorCycle" route="route_5" depart="481" />
<vehicle id="Car_262" type="MotorCycle" route="route_1" depart="482" />
<vehicle id="Bus_263" type="MotorCycle" route="route_1" depart="483" />
<vehicle id="Car_264" type="MotorCycle" route="route_2" depart="483" />
<vehicle id="Car_265" type="Car" route="route_2" depart="483" />
<vehicle id="Auto_266" type="MotorCycle" route="route_7" depart="483" />
<vehicle id="Bus_267" type="Bus" route="route_1" depart="484" />
<vehicle id="Bus_268" type="MotorCycle" route="route_1" depart="484" />
<vehicle id="Car_269" type="Auto" route="route_2" depart="484" />
<vehicle id="Car_270" type="MotorCycle" route="route_2" depart="484" />
<vehicle id="Car_271" type="Car" route="route_2" depart="484" />
<vehicle id="Auto_272" type="MotorCycle" route="route_7" depart="484" />
<vehicle id="Car_273" type="MotorCycle" route="route_10" depart="484" />
<vehicle id="MotorCycle_274" type="MotorCycle" route="route_1" depart="485" />
<vehicle id="Car_275" type="Bus" route="route_8" depart="485" />
<vehicle id="Car_276" type="MotorCycle" route="route_8" depart="485" />
<vehicle id="Bus_277" type="MotorCycle" route="route_2" depart="486" />
<vehicle id="MotorCycle_278" type="MotorCycle" route="route_6" depart="486" />
<vehicle id="Bus_279" type="MotorCycle" route="route_1" depart="487" />
<vehicle id="Car_280" type="MotorCycle" route="route_2" depart="487" />
<vehicle id="Car_281" type="MotorCycle" route="route_4" depart="487" />
<vehicle id="Car_282" type="Car" route="route_5" depart="487" />
<vehicle id="Auto_283" type="MotorCycle" route="route_1" depart="488" />
<vehicle id="Car_284" type="MotorCycle" route="route_5" depart="488" />
<vehicle id="Auto_285" type="MotorCycle" route="route_7" depart="488" />
<vehicle id="MotorCycle_286" type="MotorCycle" route="route_1" depart="489" />
<vehicle id="MotorCycle_287" type="MotorCycle" route="route_2" depart="489" />
<vehicle id="MotorCycle_288" type="MotorCycle" route="route_1" depart="490" />
<vehicle id="Bus_289" type="MotorCycle" route="route_2" depart="490" />
<vehicle id="Bus_290" type="MotorCycle" route="route_1" depart="491" />
<vehicle id="Bus_291" type="MotorCycle" route="route_2" depart="492" />
<vehicle id="Auto_292" type="MotorCycle" route="route_4" depart="492" />
<vehicle id="Bus_293" type="MotorCycle" route="route_1" depart="493" />
<vehicle id="Car_294" type="MotorCycle" route="route_2" depart="493" />
<vehicle id="Bus_295" type="Car" route="route_6" depart="494" />
<vehicle id="Auto_296" type="MotorCycle" route="route_1" depart="495" />
<vehicle id="Bus_297" type="Bus" route="route_2" depart="495" />
<vehicle id="Auto_298" type="MotorCycle" route="route_5" depart="495" />
<vehicle id="MotorCycle_299" type="MotorCycle" route="route_10" depart="495" />
<vehicle id="MotorCycle_300" type="MotorCycle" route="route_1" depart="496" />
<vehicle id="Auto_301" type="MotorCycle" route="route_2" depart="496" />
<vehicle id="Auto_302" type="Car" route="route_1" depart="497" />
<vehicle id="MotorCycle_303" type="MotorCycle" route="route_2" depart="497" />
<vehicle id="Auto_304" type="MotorCycle" route="route_4" depart="497" />
<vehicle id="Car_305" type="MotorCycle" route="route_2" depart="498" />
<vehicle id="Bus_306" type="MotorCycle" route="route_9" depart="498" />
<vehicle id="Bus_307" type="Car" route="route_9" depart="498" />
<vehicle id="Bus_308" type="MotorCycle" route="route_8" depart="500" />
<vehicle id="Bus_309" type="Car" route="route_8" depart="500" />
<vehicle id="Car_310" type="MotorCycle" route="route_9" depart="504" />
<vehicle id="Auto_311" type="MotorCycle" route="route_5" depart="505" />
<vehicle id="Auto_312" type="MotorCycle" route="route_6" depart="506" />
<vehicle id="Car_313" type="MotorCycle" route="route_7" depart="507" />
<vehicle id="MotorCycle_314" type="Bus" route="route_1" depart="508" />
<vehicle id="MotorCycle_315" type="MotorCycle" route="route_1" depart="508" />
<vehicle id="Bus_316" type="Auto" route="route_9" depart="508" />
<vehicle id="Bus_317" type="MotorCycle" route="route_9" depart="508" />
<vehicle id="Auto_318" type="MotorCycle" route="route_6" depart="511" />
<vehicle id="Auto_319" type="Car" route="route_6" depart="511" />
<vehicle id="Car_320" type="MotorCycle" route="route_5" depart="514" />
<vehicle id="Auto_321" type="MotorCycle" route="route_1" depart="519" />
<vehicle id="Bus_322" type="MotorCycle" route="route_6" depart="521" />
<vehicle id="MotorCycle_323" type="MotorCycle" route="route_4" depart="524" />
<vehicle id="Car_324" type="MotorCycle" route="route_9" depart="525" />
<vehicle id="MotorCycle_325" type="Car" route="route_1" depart="528" />
<vehicle id="MotorCycle_326" type="MotorCycle" route="route_3" depart="545" />
<vehicle id="Bus_327" type="MotorCycle" route="route_10" depart="552" />
<vehicle id="Car_328" type="MotorCycle" route="route_10" depart="562" />
<vehicle id="MotorCycle_329" type="MotorCycle" route="route_8" depart="572" />
<vehicle id="Car_330" type="MotorCycle" route="route_5" depart="582" />
<vehicle id="Car_331" type="MotorCycle" route="route_1" depart="583" />
<vehicle id="MotorCycle_332" type="Auto" route="route_4" depart="583" />
<vehicle id="MotorCycle_333" type="MotorCycle" route="route_4" depart="583" />
<vehicle id="MotorCycle_334" type="Car" route="route_4" depart="583" />
<vehicle id="Car_335" type="MotorCycle" route="route_10" depart="588" />
<vehicle id="Car_336" type="Car" route="route_10" depart="588" />
<vehicle id="Auto_337" type="MotorCycle" route="route_1" depart="597" />
<vehicle id="Auto_338" type="MotorCycle" route="route_5" depart="599" />
<vehicle id="Auto_339" type="MotorCycle" route="route_1" depart="600" />
<vehicle id="Car_340" type="MotorCycle" route="route_2" depart="601" />
<vehicle id="Auto_341" type="MotorCycle" route="route_8" depart="602" />
<vehicle id="Bus_342" type="MotorCycle" route="route_1" depart="608" />
<vehicle id="Car_343" type="Car" route="route_4" depart="610" />
<vehicle id="MotorCycle_344" type="MotorCycle" route="route_5" depart="611" />
<vehicle id="Car_345" type="MotorCycle" route="route_10" depart="612" />
<vehicle id="Car_346" type="MotorCycle" route="route_3" depart="619" />
<vehicle id="Bus_347" type="MotorCycle" route="route_3" depart="629" />
<vehicle id="Auto_348" type="MotorCycle" route="route_5" depart="630" />
<vehicle id="Car_349" type="MotorCycle" route="route_10" depart="631" />
<vehicle id="Car_350" type="MotorCycle" route="route_2" depart="632" />
<vehicle id="Bus_351" type="MotorCycle" route="route_2" depart="634" />
<vehicle id="Bus_352" type="Car" route="route_2" depart="634" />
<vehicle id="Bus_353" type="MotorCycle" route="route_2" depart="639" />
<vehicle id="Bus_354" type="Car" route="route_2" depart="639" />
<vehicle id="Auto_355" type="MotorCycle" route="route_7" depart="645" />
<vehicle id="MotorCycle_356" type="MotorCycle" route="route_10" depart="647" />
<vehicle id="MotorCycle_357" type="Car" route="route_10" depart="647" />
<vehicle id="Car_358" type="MotorCycle" route="route_4" depart="649" />
<vehicle id="Auto_359" type="MotorCycle" route="route_3" depart="652" />
<vehicle id="MotorCycle_360" type="MotorCycle" route="route_4" depart="655" />
<vehicle id="Auto_361" type="MotorCycle" route="route_5" depart="661" />
<vehicle id="Auto_362" type="Car" route="route_5" depart="661" />
<vehicle id="Auto_363" type="MotorCycle" route="route_1" depart="664" />
<vehicle id="Car_364" type="MotorCycle" route="route_2" depart="674" />
<vehicle id="Car_365" type="Car" route="route_2" depart="674" />
<vehicle id="Car_366" type="MotorCycle" route="route_5" depart="674" />
<vehicle id="Auto_367" type="MotorCycle" route="route_2" depart="675" />
<vehicle id="Bus_368" type="MotorCycle" route="route_2" depart="681" />
<vehicle id="Bus_369" type="Car" route="route_2" depart="681" />
<vehicle id="MotorCycle_370" type="MotorCycle" route="route_5" depart="681" />
<vehicle id="Auto_371" type="MotorCycle" route="route_1" depart="683" />
<vehicle id="Bus_372" type="MotorCycle" route="route_10" depart="690" />
<vehicle id="Auto_373" type="MotorCycle" route="route_8" depart="691" />
<vehicle id="Auto_374" type="Car" route="route_8" depart="691" />
<vehicle id="Bus_375" type="MotorCycle" route="route_10" depart="693" />