<routes>
<vType id="Bus" accel="0.6" decel="3.5" sigma="0.5" length="10.1" minGap="1.0" maxSpeed="16.67" carFollowModel="Wiedemann" guiShape="bus" width="2.45" latAlignment="left" laneChangeModel="SL2015" lcStrategic="0.5" lcCooperative="0.0"/>
<vType id="Auto" accel="0.7" decel="4.5" sigma="0.5" length="2.6" minGap="0.3" maxSpeed="16" carFollowModel="Wiedemann" guiShape="passenger/sedan" width="1.25" latAlignment="left" laneChangeModel="SL2015" lcStrategic="0.5" lcCooperative="0.0" />
<vType id="MotorCycle" accel="0.9" decel="3.5" sigma="0.5" length="1.85" minGap="0.15"  carFollowModel="Wiedemann" maxSpeed="17" guiShape="motorcycle" width="0.7" latAlignment="left" laneChangeModel="SL2015" lcStrategic="0.5" lcCooperative="0.0"/>
<vType id="Car" accel="0.8" decel="4.5" sigma="0.5" length="3.6" minGap="0.5" maxSpeed="40" carFollowModel="Wiedemann" guiShape="passenger" width="1.5" latAlignment="left" laneChangeModel="SL2015" lcStrategic="0.5" lcCooperative="0.0"/>
<vType id="emergency" accel="2.8" decel="5.5" sigma="0.5" length="3.6" minGap="0.5" maxSpeed="120.6" carFollowModel="Wiedemann" guiShape="emergency" width="1.5" latAlignment="left" laneChangeModel="SL2015" lcStrategic="0.5" lcCooperative="0.0" vClass="emergency" speedFactor="1.9" jmDriveAfterRedTime="300" jmDriveAfterRedSpeed="5.56">
<param key="has.bluelight.device" value="true"/>
<param key="has.fcd.device" value="true"/> 
</vType>
	<route id="route_0" edges="78[0] 56a 56b 78[1][1]" />
	<route id="route_1" edges="78[0] 56a 56b 78[1][1] 189[0] 189[1][0]+20000 189[1][1] 188 87[0] 20001+87[1][0] 87[1][1] m90 89[0] 20002+89[1][0] 89[1][1] 91 186 109[0] 109[1][0]+20003 109[1][1] 116 46 134 134b -gneE0" />
        <route id="route_2" edges="gneE0 133 31 115 110 185 92 90 m91 88 187 190 77[0] 77[1][1] " />
        <route id="route_3" edges="78[0] 56a 56b 79 68 11 84" />
        <route id="route_4" edges="78[0] 56a 56b 21a 21b " /> 
        <route id="route_5" edges="75 77[0] 79 68 11 84 " />
        <route id="route_6" edges="75 77[0] 21a 21b" />
        <route id="route_7" edges="gneE0 133 31 201 201c 204a[0] " />
        <route id="route_8" edges="gneE0 133 31 113 209" />
        <route id="route_9" edges="119 116 46 113 209" />
        <route id="route_10" edges="119 116 46 201 201c 204a[0]" />
        <route id="route_11" edges="59" />
        <route id="route_12" edges="59" />
        <route id="route_13" edges="59" />
        <route id="route_14" edges="59" />
        <route id="route_15" edges="59" />
        <route id="route_16" edges="59" />
        <route id="route_17" edges="59" />
        <route id="route_18" edges="59" />
        <route id="route_19" edges="59" />
        <route id="route_20" edges="59" />
        <route id="route_21" edges="59" />
        <route id="route_22" edges="59" />
        <route id="route_23" edges="59" />

	<route id="route_24" edges="59"/>
<vehicle id="emergency_0" type="emergency" route="route_22" depart="0" />
<vehicle id="Bus_0" type="Bus" route="route_22" depart="0" />
<vehicle id="Car_0" type="Car" route="route_14" depart="0" />
<vehicle id="MotorCycle_1" type="MotorCycle" route="route_2" depart="1" />
<vehicle id="Car_2" type="MotorCycle" route="route_1" depart="2" />
<vehicle id="Auto_3" type="MotorCycle" route="route_1" depart="3" />
<vehicle id="Car_4" type="MotorCycle" route="route_2" depart="3" />
<vehicle id="MotorCycle_5" type="Auto" route="route_7" depart="3" />
<vehicle id="MotorCycle_6" type="MotorCycle" route="route_7" depart="3" />
<vehicle id="Car_7" type="MotorCycle" route="route_2" depart="5" />
<vehicle id="MotorCycle_8" type="Bus" route="route_1" depart="6" />
<vehicle id="MotorCycle_9" type="Auto" route="route_1" depart="6" />
<vehicle id="MotorCycle_10" type="MotorCycle" route="route_1" depart="6" />
<vehicle id="MotorCycle_11" type="MotorCycle" route="route_5" depart="6" />
<vehicle id="Car_12" type="Bus" route="route_6" depart="7" />
<vehicle id="Car_13" type="MotorCycle" route="route_6" depart="7" />
<vehicle id="MotorCycle_14" type="MotorCycle" route="route_7" depart="7" />
<vehicle id="Auto_15" type="MotorCycle" route="route_1" depart="9" />
<vehicle id="Bus_16" type="MotorCycle" route="route_4" depart="9" />
<vehicle id="Car_17" type="Car" route="route_6" depart="9" />
<vehicle id="MotorCycle_18" type="MotorCycle" route="route_4" depart="11" />
<vehicle id="MotorCycle_19" type="MotorCycle" route="route_1" depart="13" />
<vehicle id="Auto_20" type="MotorCycle" route="route_1" depart="14" />
<vehicle id="Bus_21" type="MotorCycle" route="route_6" depart="15" />
<vehicle id="Bus_22" type="Car" route="route_6" depart="15" />
<vehicle id="MotorCycle_23" type="MotorCycle" route="route_1" depart="16" />
<vehicle id="Bus_24" type="MotorCycle" route="route_10" depart="16" />
<vehicle id="Car_25" type="Bus" route="route_10" depart="17" />
<vehicle id="Car_26" type="MotorCycle" route="route_10" depart="17" />
<vehicle id="Car_27" type="MotorCycle" route="route_1" depart="18" />
<vehicle id="Car_28" type="Car" route="route_2" depart="18" />
<vehicle id="Auto_29" type="MotorCycle" route="route_6" depart="18" />
<vehicle id="MotorCycle_30" type="MotorCycle" route="route_4" depart="19" />
<vehicle id="MotorCycle_31" type="MotorCycle" route="route_1" depart="21" />
<vehicle id="MotorCycle_32" type="MotorCycle" route="route_2" depart="22" />
<vehicle id="Car_33" type="MotorCycle" route="route_8" depart="23" />
<vehicle id="Car_34" type="MotorCycle" route="route_3" depart="24" />
<vehicle id="Car_35" type="MotorCycle" route="route_10" depart="25" />
<vehicle id="Car_36" type="Car" route="route_10" depart="25" />
<vehicle id="MotorCycle_37" type="Auto" route="route_8" depart="27" />
<vehicle id="MotorCycle_38" type="MotorCycle" route="route_8" depart="27" />
<vehicle id="Auto_39" type="MotorCycle" route="route_1" depart="30" />
<vehicle id="Auto_40" type="MotorCycle" route="route_2" depart="30" />
<vehicle id="Bus_41" type="MotorCycle" route="route_2" depart="31" />
<vehicle id="Bus_42" type="Car" route="route_2" depart="31" />
<vehicle id="MotorCycle_43" type="MotorCycle" route="route_5" depart="31" />
<vehicle id="Bus_44" type="Bus" route="route_2" depart="32" />
<vehicle id="Bus_45" type="MotorCycle" route="route_2" depart="32" />
<vehicle id="Bus_46" type="MotorCycle" route="route_7" depart="32" />
<vehicle id="Car_47" type="MotorCycle" route="route_1" depart="33" />
<vehicle id="MotorCycle_48" type="MotorCycle" route="route_5" depart="35" />
<vehicle id="Auto_49" type="MotorCycle" route="route_10" depart="35" />
<vehicle id="Auto_50" type="MotorCycle" route="route_3" depart="38" />
<vehicle id="Auto_51" type="MotorCycle" route="route_8" depart="39" />
<vehicle id="Car_52" type="MotorCycle" route="route_10" depart="40" />
<vehicle id="MotorCycle_53" type="Car" route="route_2" depart="41" />
<vehicle id="Car_54" type="MotorCycle" route="route_1" depart="44" />
<vehicle id="Auto_55" type="MotorCycle" route="route_9" depart="44" />
<vehicle id="Car_56" type="MotorCycle" route="route_2" depart="45" />
<vehicle id="Car_57" type="MotorCycle" route="route_10" depart="46" />
<vehicle id="Car_58" type="Car" route="route_10" depart="46" />
<vehicle id="Car_59" type="Auto" route="route_6" depart="47" />
<vehicle id="Car_60" type="MotorCycle" route="route_6" depart="47" />
<vehicle id="Auto_61" type="MotorCycle" route="route_1" depart="48" />
<vehicle id="Auto_62" type="MotorCycle" route="route_2" depart="48" />
<vehicle id="Auto_63" type="MotorCycle" route="route_1" depart="49" />
<vehicle id="Bus_64" type="MotorCycle" route="route_2" depart="49" />
<vehicle id="Bus_65" type="MotorCycle" route="route_1" depart="55" />
<vehicle id="Bus_66" type="Car" route="route_1" depart="55" />
<vehicle id="Bus_67" type="MotorCycle" route="route_5" depart="57" />
<vehicle id="Bus_68" type="Car" route="route_5" depart="57" />
<vehicle id="Car_69" type="MotorCycle" route="route_6" depart="59" />
<vehicle id="Car_70" type="MotorCycle" route="route_5" depart="65" />
<vehicle id="Car_71" type="Bus" route="route_6" depart="67" />
<vehicle id="Car_72" type="MotorCycle" route="route_1" depart="70" />
<vehicle id="MotorCycle_73" type="MotorCycle" route="route_4" depart="76" />
<vehicle id="Auto_74" type="MotorCycle" route="route_1" depart="88" />
<vehicle id="MotorCycle_75" type="MotorCycle" route="route_4" depart="89" />
<vehicle id="Auto_76" type="MotorCycle" route="route_8" depart="89" />
<vehicle id="Car_77" type="MotorCycle" route="route_10" depart="98" />
<vehicle id="MotorCycle_78" type="Car" route="route_4" depart="101" />
<vehicle id="MotorCycle_79" type="Car" route="route_2" depart="104" />
<vehicle id="Car_80" type="Auto" route="route_4" depart="107" />
<vehicle id="Bus_81" type="Auto" route="route_1" depart="109" />
<vehicle id="MotorCycle_82" type="MotorCycle" route="route_6" depart="111" />
<vehicle id="MotorCycle_83" type="Car" route="route_6" depart="111" />
<vehicle id="Bus_84" type="MotorCycle" route="route_2" depart="116" />
<vehicle id="MotorCycle_85" type="Bus" route="route_2" depart="117" />
<vehicle id="MotorCycle_86" type="MotorCycle" route="route_8" depart="121" />
<vehicle id="MotorCycle_87" type="MotorCycle" route="route_1" depart="124" />
<vehicle id="Car_88" type="MotorCycle" route="route_4" depart="124" />
<vehicle id="Car_89" type="Car" route="route_4" depart="124" />
<vehicle id="Car_90" type="MotorCycle" route="route_7" depart="124" />
<vehicle id="Auto_91" type="MotorCycle" route="route_2" depart="143" />
<vehicle id="Auto_92" type="Bus" route="route_9" depart="146" />
<vehicle id="Auto_93" type="Auto" route="route_9" depart="146" />
<vehicle id="MotorCycle_94" type="MotorCycle" route="route_4" depart="147" />
<vehicle id="Car_95" type="MotorCycle" route="route_7" depart="148" />
<vehicle id="Auto_96" type="Auto" route="route_2" depart="151" />
<vehicle id="Auto_97" type="Car" route="route_6" depart="154" />
<vehicle id="Auto_98" type="MotorCycle" route="route_10" depart="158" />
<vehicle id="Bus_99" type="MotorCycle" route="route_5" depart="159" />
<vehicle id="Car_100" type="MotorCycle" route="route_2" depart="160" />
<vehicle id="Auto_101" type="Car" route="route_1" depart="166" />
<vehicle id="Bus_102" type="MotorCycle" route="route_6" depart="167" />
<vehicle id="Bus_103" type="MotorCycle" route="route_2" depart="172" />
<vehicle id="Auto_104" type="Auto" route="route_1" depart="173" />
<vehicle id="Auto_105" type="MotorCycle" route="route_1" depart="173" />
<vehicle id="Auto_106" type="Car" route="route_1" depart="173" />
<vehicle id="MotorCycle_107" type="MotorCycle" route="route_2" depart="173" />
<vehicle id="Bus_108" type="MotorCycle" route="route_10" depart="173" />
<vehicle id="Bus_109" type="Car" route="route_10" depart="173" />
<vehicle id="MotorCycle_110" type="MotorCycle" route="route_1" depart="176" />
<vehicle id="Car_111" type="MotorCycle" route="route_18" depart="177" />
<vehicle id="MotorCycle_112" type="Auto" route="route_10" depart="178" />
<vehicle id="MotorCycle_113" type="MotorCycle" route="route_10" depart="178" />
<vehicle id="Bus_114" type="MotorCycle" route="route_3" depart="179" />
<vehicle id="Car_115" type="MotorCycle" route="route_2" depart="185" />
<vehicle id="Car_116" type="MotorCycle" route="route_1" depart="187" />
<vehicle id="MotorCycle_117" type="MotorCycle" route="route_9" depart="190" />
<vehicle id="MotorCycle_118" type="Car" route="route_9" depart="190" />
<vehicle id="Auto_119" type="MotorCycle" route="route_19" depart="191" />
<vehicle id="Car_120" type="MotorCycle" route="route_4" depart="193" />
<vehicle id="Bus_121" type="MotorCycle" route="route_6" depart="197" />
<vehicle id="Auto_122" type="MotorCycle" route="route_8" depart="198" />
<vehicle id="Auto_123" type="MotorCycle" route="route_4" depart="206" />
<vehicle id="Auto_124" type="Car" route="route_4" depart="206" />
<vehicle id="Bus_125" type="MotorCycle" route="route_10" depart="209" />
<vehicle id="MotorCycle_126" type="Auto" route="route_3" depart="216" />
<vehicle id="MotorCycle_127" type="MotorCycle" route="route_8" depart="218" />
<vehicle id="Bus_128" type="MotorCycle" route="route_9" depart="219" />
<vehicle id="Car_129" type="MotorCycle" route="route_2" depart="236" />
<vehicle id="Auto_130" type="MotorCycle" route="route_5" depart="241" />
<vehicle id="Auto_131" type="Car" route="route_2" depart="244" />
<vehicle id="Auto_132" type="MotorCycle" route="route_1" depart="249" />
<vehicle id="MotorCycle_133" type="MotorCycle" route="route_5" depart="251" />
<vehicle id="Auto_134" type="MotorCycle" route="route_6" depart="259" />
<vehicle id="Car_135" type="MotorCycle" route="route_7" depart="260" />
<vehicle id="Car_136" type="Car" route="route_7" depart="260" />
<vehicle id="Auto_137" type="MotorCycle" route="route_2" depart="262" />
<vehicle id="Auto_138" type="MotorCycle" route="route_9" depart="262" />
<vehicle id="Auto_139" type="Car" route="route_9" depart="262" />
<vehicle id="Bus_140" type="MotorCycle" route="route_8" depart="263" />
<vehicle id="Auto_141" type="MotorCycle" route="route_3" depart="264" />
<vehicle id="MotorCycle_142" type="MotorCycle" route="route_3" depart="265" />
<vehicle id="Car_143" type="MotorCycle" route="route_5" depart="267" />
<vehicle id="Auto_144" type="MotorCycle" route="route_2" depart="268" />
<vehicle id="Auto_145" type="Car" route="route_2" depart="268" />
<vehicle id="Car_146" type="Bus" route="route_1" depart="269" />
<vehicle id="Car_147" type="MotorCycle" route="route_1" depart="269" />
<vehicle id="Car_148" type="Car" route="route_1" depart="269" />
<vehicle id="Bus_149" type="Auto" route="route_1" depart="273" />
<vehicle id="Bus_150" type="MotorCycle" route="route_1" depart="273" />
<vehicle id="Auto_151" type="MotorCycle" route="route_3" depart="273" />
<vehicle id="Auto_152" type="MotorCycle" route="route_4" depart="274" />
<vehicle id="MotorCycle_153" type="MotorCycle" route="route_7" depart="283" />
<vehicle id="Car_154" type="Bus" route="route_2" depart="284" />
<vehicle id="Car_155" type="MotorCycle" route="route_2" depart="284" />
<vehicle id="Car_156" type="MotorCycle" route="route_7" depart="284" />
<vehicle id="Car_157" type="Car" route="route_7" depart="284" />
<vehicle id="Auto_158" type="MotorCycle" route="route_4" depart="286" />
<vehicle id="Bus_159" type="MotorCycle" route="route_9" depart="296" />
<vehicle id="Bus_160" type="MotorCycle" route="route_8" depart="300" />
<vehicle id="Bus_161" type="MotorCycle" route="route_4" depart="301" />
<vehicle id="Car_162" type="MotorCycle" route="route_7" depart="304" />
<vehicle id="Car_163" type="Car" route="route_7" depart="304" />
<vehicle id="Bus_164" type="MotorCycle" route="route_1" depart="314" />
<vehicle id="Car_165" type="MotorCycle" route="route_7" depart="314" />
<vehicle id="Car_166" type="Car" route="route_7" depart="314" />
<vehicle id="MotorCycle_167" type="MotorCycle" route="route_7" depart="316" />
<vehicle id="Car_168" type="MotorCycle" route="route_1" depart="329" />
<vehicle id="Car_169" type="Car" route="route_1" depart="329" />
<vehicle id="Bus_170" type="Auto" route="route_8" depart="329" />
<vehicle id="Bus_171" type="MotorCycle" route="route_8" depart="329" />
<vehicle id="Bus_172" type="Car" route="route_6" depart="330" />
<vehicle id="Auto_173" type="MotorCycle" route="route_10" depart="331" />
<vehicle id="Auto_174" type="Car" route="route_10" depart="331" />
<vehicle id="Car_175" type="MotorCycle" route="route_2" depart="332" />
<vehicle id="Car_176" type="MotorCycle" route="route_1" depart="333" />
<vehicle id="MotorCycle_177" type="MotorCycle" route="route_5" depart="336" />
<vehicle id="MotorCycle_178" type="Car" route="route_5" depart="336" />
<vehicle id="MotorCycle_179" type="MotorCycle" route="route_10" depart="336" />
<vehicle id="MotorCycle_180" type="MotorCycle" route="route_2" depart="337" />
<vehicle id="Auto_181" type="Car" route="route_2" depart="340" />
<vehicle id="MotorCycle_182" type="MotorCycle" route="route_3" depart="342" />
<vehicle id="MotorCycle_183" type="MotorCycle" route="route_2" depart="344" />
<vehicle id="Bus_184" type="MotorCycle" route="route_7" depart="345" />
<vehicle id="Auto_185" type="MotorCycle" route="route_2" depart="347" />
<vehicle id="Auto_186" type="Car" route="route_2" depart="347" />
<vehicle id="Auto_187" type="MotorCycle" route="route_9" depart="350" />
<vehicle id="Car_188" type="MotorCycle" route="route_2" depart="355" />
<vehicle id="Car_189" type="Auto" route="route_9" depart="357" />
<vehicle id="Car_190" type="MotorCycle" route="route_9" depart="357" />
<vehicle id="MotorCycle_191" type="MotorCycle" route="route_9" depart="362" />
<vehicle id="Auto_192" type="Auto" route="route_7" depart="363" />
<vehicle id="Auto_193" type="MotorCycle" route="route_7" depart="363" />
<vehicle id="Auto_194" type="MotorCycle" route="route_5" depart="370" />
<vehicle id="Bus_195" type="Car" route="route_4" depart="375" />
<vehicle id="Auto_196" type="MotorCycle" route="route_1" depart="380" />
<vehicle id="Car_197" type="MotorCycle" route="route_10" depart="380" />
<vehicle id="Car_198" type="MotorCycle" route="route_7" depart="382" />
<vehicle id="Auto_199" type="MotorCycle" route="route_4" depart="395" />
<vehicle id="Auto_200" type="MotorCycle" route="route_6" depart="395" />
<vehicle id="Auto_201" type="MotorCycle" route="route_10" depart="396" />
<vehicle id="MotorCycle_202" type="MotorCycle" route="route_1" depart="406" />
<vehicle id="MotorCycle_203" type="MotorCycle" route="route_1" depart="407" />
<vehicle id="MotorCycle_204" type="MotorCycle" route="route_2" depart="408" />
<vehicle id="Car_205" type="MotorCycle" route="route_8" depart="410" />
<vehicle id="Auto_206" type="Bus" route="route_3" depart="416" />
<vehicle id="Auto_207" type="MotorCycle" route="route_3" depart="416" />
<vehicle id="Car_208" type="MotorCycle" route="route_1" depart="425" />
<vehicle id="Bus_209" type="Car" route="route_6" depart="430" />
<vehicle id="MotorCycle_210" type="MotorCycle" route="route_6" depart="431" />
<vehicle id="MotorCycle_211" type="MotorCycle" route="route_7" depart="434" />
<vehicle id="Auto_212" type="MotorCycle" route="route_5" depart="435" />
<vehicle id="Auto_213" type="Car" route="route_5" depart="435" />
<vehicle id="Car_214" type="MotorCycle" route="route_9" depart="441" />
<vehicle id="Bus_215" type="MotorCycle" route="route_2" depart="442" />
<vehicle id="Bus_216" type="Car" route="route_2" depart="442" />
<vehicle id="Auto_217" type="Auto" route="route_10" depart="442" />
<vehicle id="Auto_218" type="MotorCycle" route="route_10" depart="442" />
<vehicle id="Car_219" type="MotorCycle" route="route_2" depart="450" />
<vehicle id="Car_220" type="Auto" route="route_5" depart="450" />
<vehicle id="Car_221" type="MotorCycle" route="route_5" depart="450" />
<vehicle id="MotorCycle_222" type="MotorCycle" route="route_1" depart="451" />
<vehicle id="Car_223" type="MotorCycle" route="route_2" depart="451" />
<vehicle id="Car_224" type="Car" route="route_2" depart="451" />
<vehicle id="Auto_225" type="MotorCycle" route="route_9" depart="451" />
<vehicle id="Car_226" type="Auto" route="route_1" depart="452" />
<vehicle id="Car_227" type="MotorCycle" route="route_1" depart="452" />
<vehicle id="Bus_228" type="MotorCycle" route="route_2" depart="452" />
<vehicle id="Auto_229" type="MotorCycle" route="route_9" depart="452" />
<vehicle id="Car_230" type="MotorCycle" route="route_10" depart="452" />
<vehicle id="MotorCycle_231" type="MotorCycle" route="route_2" depart="453" />
<vehicle id="MotorCycle_232" type="MotorCycle" route="route_5" depart="453" />
<vehicle id="Car_233" type="MotorCycle" route="route_9" depart="453" />
<vehicle id="Car_234" type="MotorCycle" route="route_1" depart="454" />
<vehicle id="Auto_235" type="Auto" route="route_2" depart="454" />
<vehicle id="Auto_236" type="MotorCycle" route="route_2" depart="454" />
<vehicle id="Car_237" type="MotorCycle" route="route_4" depart="454" />
<vehicle id="Auto_238" type="MotorCycle" route="route_1" depart="455" />
<vehicle id="Car_239" type="MotorCycle" route="route_3" depart="455" />
<vehicle id="Car_240" type="Car" route="route_3" depart="455" />
<vehicle id="Car_241" type="MotorCycle" route="route_1" depart="456" />
<vehicle id="Auto_242" type="Auto" route="route_2" depart="456" />
<vehicle id="Auto_243" type="MotorCycle" route="route_2" depart="456" />
<vehicle id="MotorCycle_244" type="MotorCycle" route="route_4" depart="456" />
<vehicle id="Car_245" type="MotorCycle" route="route_1" depart="457" />
<vehicle id="Auto_246" type="MotorCycle" route="route_1" depart="458" />
<vehicle id="Bus_247" type="MotorCycle" route="route_2" depart="458" />
<vehicle id="Car_248" type="MotorCycle" route="route_9" depart="458" />
<vehicle id="MotorCycle_249" type="MotorCycle" route="route_2" depart="459" />
<vehicle id="Car_250" type="MotorCycle" route="route_2" depart="460" />
<vehicle id="Car_251" type="MotorCycle" route="route_2" depart="461" />
<vehicle id="Bus_252" type="MotorCycle" route="route_3" depart="461" />
<vehicle id="Auto_253" type="MotorCycle" route="route_10" depart="461" />
<vehicle id="Bus_254" type="MotorCycle" route="route_1" depart="462" />
<vehicle id="Bus_255" type="MotorCycle" route="route_2" depart="463" />
<vehicle id="Bus_256" type="Car" route="route_2" depart="463" />
<vehicle id="Car_257" type="Auto" route="route_3" depart="463" />
<vehicle id="MotorCycle_258" type="MotorCycle" route="route_1" depart="464" />
<vehicle id="Car_259" type="MotorCycle" route="route_2" depart="464" />
<vehicle id="Car_260" type="Auto" route="route_8" depart="464" />
<vehicle id="Car_261" type="MotorCycle" route="route_8" depart="464" />
<vehicle id="Bus_262" type="MotorCycle" route="route_3" depart="465" />
<vehicle id="MotorCycle_263" type="MotorCycle" route="route_4" depart="465" />
<vehicle id="MotorCycle_264" type="MotorCycle" route="route_8" depart="466" />
<vehicle id="Car_265" type="MotorCycle" route="route_9" depart="466" />
<vehicle id="Bus_266" type="MotorCycle" route="route_2" depart="467" />
<vehicle id="Car_267" type="MotorCycle" route="route_1" depart="468" />
<vehicle id="Bus_268" type="MotorCycle" route="route_2" depart="468" />
<vehicle id="Bus_269" type="MotorCycle" route="route_1" depart="469" />
<vehicle id="Auto_270" type="MotorCycle" route="route_2" depart="469" />
<vehicle id="Car_271" type="MotorCycle" route="route_3" depart="469" />
<vehicle id="Bus_272" type="MotorCycle" route="route_2" depart="470" />
<vehicle id="Bus_273" type="Car" route="route_2" depart="470" />
<vehicle id="Bus_274" type="MotorCycle" route="route_2" depart="471" />
<vehicle id="Bus_275" type="Car" route="route_2" depart="471" />
<vehicle id="Car_276" type="MotorCycle" route="route_7" depart="471" />
<vehicle id="Auto_277" type="Auto" route="route_9" depart="471" />
<vehicle id="Auto_278" type="MotorCycle" route="route_9" depart="471" />
<vehicle id="Auto_279" type="Auto" route="route_1" depart="472" />
<vehicle id="Auto_280" type="Car" route="route_1" depart="472" />
<vehicle id="Bus_281" type="MotorCycle" route="route_2" depart="472" />
<vehicle id="Bus_282" type="MotorCycle" route="route_2" depart="473" />
<vehicle id="Bus_283" type="Car" route="route_2" depart="473" />
<vehicle id="Car_284" type="MotorCycle" route="route_5" depart="473" />
<vehicle id="Bus_285" type="MotorCycle" route="route_2" depart="474" />
<vehicle id="Bus_286" type="MotorCycle" route="route_1" depart="475" />
<vehicle id="Bus_287" type="MotorCycle" route="route_2" depart="475" />
<vehicle id="Car_288" type="MotorCycle" route="route_1" depart="476" />
<vehicle id="MotorCycle_289" type="MotorCycle" route="route_2" depart="476" />
<vehicle id="Bus_290" type="MotorCycle" route="route_2" depart="477" />
<vehicle id="Bus_291" type="MotorCycle" route="route_3" depart="477" />
<vehicle id="Bus_292" type="MotorCycle" route="route_1" depart="478" />
<vehicle id="MotorCycle_293" type="MotorCycle" route="route_2" depart="478" />
<vehicle id="Car_294" type="MotorCycle" route="route_1" depart="479" />
<vehicle id="Car_295" type="MotorCycle" route="route_2" depart="480" />
<vehicle id="Bus_296" type="MotorCycle" route="route_4" depart="480" />
<vehicle id="Car_297" type="MotorCycle" route="route_1" depart="481" />
<vehicle id="MotorCycle_298" type="MotorCycle" route="route_2" depart="481" />
<vehicle id="Bus_299" type="MotorCycle" route="route_2" depart="482" />
<vehicle id="MotorCycle_300" type="MotorCycle" route="route_1" depart="483" />
<vehicle id="Bus_301" type="MotorCycle" route="route_2" depart="483" />
<vehicle id="MotorCycle_302" type="MotorCycle" route="route_2" depart="484" />
<vehicle id="MotorCycle_303" type="Car" route="route_2" depart="484" />
<vehicle id="Bus_304" type="MotorCycle" route="route_7" depart="484" />
<vehicle id="Bus_305" type="MotorCycle" route="route_1" depart="485" />
<vehicle id="MotorCycle_306" type="Bus" route="route_2" depart="485" />
<vehicle id="MotorCycle_307" type="MotorCycle" route="route_2" depart="485" />
<vehicle id="Car_308" type="MotorCycle" route="route_4" depart="485" />
<vehicle id="MotorCycle_309" type="Bus" route="route_1" depart="486" />
<vehicle id="MotorCycle_310" type="MotorCycle" route="route_1" depart="486" />
<vehicle id="MotorCycle_311" type="MotorCycle" route="route_2" depart="486" />
<vehicle id="Bus_312" type="MotorCycle" route="route_5" depart="486" />
<vehicle id="MotorCycle_313" type="MotorCycle" route="route_1" depart="487" />
<vehicle id="MotorCycle_314" type="MotorCycle" route="route_2" depart="487" />
<vehicle id="MotorCycle_315" type="MotorCycle" route="route_1" depart="488" />
<vehicle id="MotorCycle_316" type="Car" route="route_1" depart="488" />
<vehicle id="Bus_317" type="MotorCycle" route="route_8" depart="488" />
<vehicle id="Auto_318" type="MotorCycle" route="route_1" depart="489" />
<vehicle id="Bus_319" type="MotorCycle" route="route_4" depart="489" />
<vehicle id="Auto_320" type="Car" route="route_1" depart="490" />
<vehicle id="MotorCycle_321" type="MotorCycle" route="route_2" depart="490" />
<vehicle id="Car_322" type="MotorCycle" route="route_10" depart="490" />
<vehicle id="Auto_323" type="MotorCycle" route="route_2" depart="491" />
<vehicle id="Auto_324" type="MotorCycle" route="route_7" depart="491" />
<vehicle id="Car_325" type="MotorCycle" route="route_1" depart="492" />
<vehicle id="Bus_326" type="MotorCycle" route="route_2" depart="492" />
<vehicle id="Bus_327" type="Auto" route="route_8" depart="492" />
<vehicle id="Bus_328" type="MotorCycle" route="route_8" depart="492" />
<vehicle id="Bus_329" type="Car" route="route_8" depart="492" />
<vehicle id="Auto_330" type="MotorCycle" route="route_5" depart="493" />
<vehicle id="Bus_331" type="MotorCycle" route="route_8" depart="493" />
<vehicle id="Bus_332" type="Auto" route="route_9" depart="493" />
<vehicle id="MotorCycle_333" type="MotorCycle" route="route_1" depart="494" />
<vehicle id="MotorCycle_334" type="MotorCycle" route="route_2" depart="495" />
<vehicle id="MotorCycle_335" type="MotorCycle" route="route_6" depart="496" />
<vehicle id="Car_336" type="MotorCycle" route="route_1" depart="497" />
<vehicle id="Auto_337" type="MotorCycle" route="route_2" depart="497" />
<vehicle id="Auto_338" type="MotorCycle" route="route_10" depart="497" />
<vehicle id="Auto_339" type="Car" route="route_10" depart="497" />
<vehicle id="MotorCycle_340" type="Auto" route="route_1" depart="498" />
<vehicle id="MotorCycle_341" type="MotorCycle" route="route_1" depart="498" />
<vehicle id="Auto_342" type="MotorCycle" route="route_2" depart="498" />
<vehicle id="MotorCycle_343" type="Auto" route="route_2" depart="499" />
<vehicle id="Bus_344" type="MotorCycle" route="route_4" depart="503" />
<vehicle id="MotorCycle_345" type="MotorCycle" route="route_9" depart="504" />
<vehicle id="Auto_346" type="MotorCycle" route="route_2" depart="518" />
<vehicle id="MotorCycle_347" type="MotorCycle" route="route_2" depart="525" />
<vehicle id="Car_348" type="MotorCycle" route="route_1" depart="536" />
<vehicle id="Bus_349" type="MotorCycle" route="route_10" depart="538" />
<vehicle id="Bus_350" type="MotorCycle" route="route_20" depart="538" />
<vehicle id="Bus_351" type="MotorCycle" route="route_9" depart="540" />
<vehicle id="Bus_352" type="Auto" route="route_2" depart="561" />
<vehicle id="Bus_353" type="MotorCycle" route="route_2" depart="561" />
<vehicle id="MotorCycle_354" type="MotorCycle" route="route_1" depart="562" />
<vehicle id="MotorCycle_355" type="MotorCycle" route="route_10" depart="569" />
<vehicle id="Bus_356" type="MotorCycle" route="route_1" depart="570" />
<vehicle id="Car_357" type="MotorCycle" route="route_8" depart="572" />
<vehicle id="Auto_358" type="MotorCycle" route="route_4" depart="577" />
<vehicle id="Auto_359" type="Car" route="route_4" depart="577" />
<vehicle id="Auto_360" type="MotorCycle" route="route_6" depart="579" />
<vehicle id="Car_361" type="MotorCycle" route="route_1" depart="580" />
<vehicle id="Car_362" type="Car" route="route_1" depart="580" />
<vehicle id="Bus_363" type="MotorCycle" route="route_1" depart="583" />
<vehicle id="MotorCycle_364" type="MotorCycle" route="route_5" depart="592" />
<vehicle id="Car_365" type="MotorCycle" route="route_10" depart="593" />
<vehicle id="MotorCycle_366" type="MotorCycle" route="route_4" depart="600" />
<vehicle id="Auto_367" type="MotorCycle" route="route_2" depart="602" />
<vehicle id="MotorCycle_368" type="MotorCycle" route="route_6" depart="602" />
<vehicle id="MotorCycle_369" type="Car" route="route_6" depart="602" />
<vehicle id="Car_370" type="MotorCycle" route="route_5" depart="603" />
<vehicle id="Auto_371" type="MotorCycle" route="route_1" depart="608" />
<vehicle id="Auto_372" type="Car" route="route_1" depart="608" />
<vehicle id="Car_373" type="MotorCycle" route="route_3" depart="613" />
<vehicle id="Car_374" type="Car" route="route_3" depart="613" />